30
  PyMOL2.3          3D                             0

 51 54  0  0  0  0  0  0  0  0999 V2000
   49.7062   35.2933   22.2815 C   0  0  0  0  0  0  0  0  0  0  0  0
   45.9302   37.0257   23.6071 C   0  0  0  0  0  0  0  0  0  0  0  0
   48.8379   32.3201   24.8473 C   0  0  0  0  0  0  0  0  0  0  0  0
   48.6813   31.5331   26.1493 C   0  0  0  0  0  0  0  0  0  0  0  0
   49.3717   30.1649   25.9895 C   0  0  0  0  0  0  0  0  0  0  0  0
   49.3394   29.3593   27.2905 C   0  0  0  0  0  0  0  0  0  0  0  0
   49.9805   30.1374   28.4455 C   0  0  0  0  0  0  0  0  0  0  0  0
   49.2701   31.4845   28.6409 C   0  0  0  0  0  0  0  0  0  0  0  0
   49.2789   32.3118   27.3449 C   0  0  0  0  0  0  0  0  0  0  0  0
   53.9199   33.1367   21.3208 C   0  0  0  0  0  0  0  0  0  0  0  0
   54.1950   32.7827   22.6551 C   0  0  0  0  0  0  0  0  0  0  0  0
   53.3788   33.2677   23.6919 C   0  0  0  0  0  0  0  0  0  0  0  0
   52.2811   34.0929   23.3887 C   0  0  0  0  0  0  0  0  0  0  0  0
   49.3575   34.3144   23.1169 N   0  0  0  0  0  0  0  0  0  0  0  0
   48.2202   34.3886   23.8394 C   0  0  0  0  0  0  0  0  0  0  0  0
   47.9527   33.4370   24.8002 O   0  0  0  0  0  0  0  0  0  0  0  0
   47.3803   35.5051   23.6436 C   0  0  0  0  0  0  0  0  0  0  0  0
   46.1711   35.8957   24.2031 N   0  0  0  0  0  0  0  0  0  0  0  0
   46.8878   37.4312   22.7186 N   0  0  0  0  0  0  0  0  0  0  0  0
   47.8243   36.4333   22.7259 C   0  0  0  0  0  0  0  0  0  0  0  0
   48.9772   36.3771   21.9912 N   0  0  0  0  0  0  0  0  0  0  0  0
   50.9362   35.2399   21.7355 N   0  0  0  0  0  0  0  0  0  0  0  0
   51.9759   34.4305   22.0489 C   0  0  0  0  0  0  0  0  0  0  0  0
   52.8214   33.9663   21.0201 C   0  0  0  0  0  0  0  0  0  0  0  0
   45.0353   37.5898   23.7999 H   0  0  0  0  0  0  0  0  0  0  0  0
   49.8869   32.6141   24.7846 H   0  0  0  0  0  0  0  0  0  0  0  0
   48.6296   31.6849   23.9846 H   0  0  0  0  0  0  0  0  0  0  0  0
   47.6196   31.3599   26.3320 H   0  0  0  0  0  0  0  0  0  0  0  0
   48.8868   29.5954   25.1962 H   0  0  0  0  0  0  0  0  0  0  0  0
   50.4081   30.3036   25.6789 H   0  0  0  0  0  0  0  0  0  0  0  0
   48.3028   29.1534   27.5433 H   0  0  0  0  0  0  0  0  0  0  0  0
   49.8364   28.3974   27.1566 H   0  0  0  0  0  0  0  0  0  0  0  0
   49.9234   29.5544   29.3651 H   0  0  0  0  0  0  0  0  0  0  0  0
   51.0400   30.3023   28.2436 H   0  0  0  0  0  0  0  0  0  0  0  0
   48.2398   31.3156   28.9588 H   0  0  0  0  0  0  0  0  0  0  0  0
   49.7483   32.0457   29.4428 H   0  0  0  0  0  0  0  0  0  0  0  0
   50.3065   32.6025   27.1205 H   0  0  0  0  0  0  0  0  0  0  0  0
   48.7265   33.2405   27.4982 H   0  0  0  0  0  0  0  0  0  0  0  0
   54.5566   32.7798   20.5255 H   0  0  0  0  0  0  0  0  0  0  0  0
   53.5935   33.0128   24.7195 H   0  0  0  0  0  0  0  0  0  0  0  0
   51.6721   34.4602   24.1997 H   0  0  0  0  0  0  0  0  0  0  0  0
   46.9102   38.2663   22.1423 H   0  0  0  0  0  0  0  0  0  0  0  0
   51.0817   35.8298   20.9262 H   0  0  0  0  0  0  0  0  0  0  0  0
   52.6299   34.2366   19.9926 H   0  0  0  0  0  0  0  0  0  0  0  0
   55.3757   31.9153   22.9764 S   0  0  0  0  0  0  0  0  0  0  0  0
   55.8451   31.3170   21.7325 O   0  0  0  0  0  0  0  0  0  0  0  0
   56.2703   32.6766   23.8401 O   0  0  0  0  0  0  0  0  0  0  0  0
   54.8977   30.7664   23.8141 C   0  0  0  0  0  0  0  0  0  0  0  0
   55.7645   30.1453   24.0398 H   0  0  0  0  0  0  0  0  0  0  0  0
   54.4593   31.1844   24.7202 H   0  0  0  0  0  0  0  0  0  0  0  0
   54.1581   30.2214   23.2275 H   0  0  0  0  0  0  0  0  0  0  0  0
  1 14  1  0  0  0  0
  1 21  2  0  0  0  0
  1 22  1  0  0  0  0
  2 18  2  0  0  0  0
  2 19  1  0  0  0  0
  2 25  1  0  0  0  0
  3  4  1  0  0  0  0
  3 16  1  0  0  0  0
  3 26  1  0  0  0  0
  3 27  1  0  0  0  0
  4  5  1  0  0  0  0
  4  9  1  0  0  0  0
  4 28  1  0  0  0  0
  5  6  1  0  0  0  0
  5 29  1  0  0  0  0
  5 30  1  0  0  0  0
  6  7  1  0  0  0  0
  6 31  1  0  0  0  0
  6 32  1  0  0  0  0
  7  8  1  0  0  0  0
  7 33  1  0  0  0  0
  7 34  1  0  0  0  0
  8  9  1  0  0  0  0
  8 35  1  0  0  0  0
  8 36  1  0  0  0  0
  9 37  1  0  0  0  0
  9 38  1  0  0  0  0
 10 11  1  0  0  0  0
 10 24  2  0  0  0  0
 10 39  1  0  0  0  0
 11 12  2  0  0  0  0
 11 45  1  0  0  0  0
 12 13  1  0  0  0  0
 12 40  1  0  0  0  0
 13 23  2  0  0  0  0
 13 41  1  0  0  0  0
 14 15  2  0  0  0  0
 15 16  1  0  0  0  0
 15 17  1  0  0  0  0
 17 18  1  0  0  0  0
 17 20  2  0  0  0  0
 19 20  1  0  0  0  0
 19 42  1  0  0  0  0
 20 21  1  0  0  0  0
 22 23  1  0  0  0  0
 22 43  1  0  0  0  0
 23 24  1  0  0  0  0
 24 44  1  0  0  0  0
 45 46  2  0  0  0  0
 45 47  2  0  0  0  0
 45 48  1  0  0  0  0
 48 49  1  0  0  0  0
 48 50  1  0  0  0  0
 48 51  1  0  0  0  0
M  END
>  <r_user_dG.exp>
-9.812000

$$$$
28
  PyMOL2.3          3D                             0

 53 56  0  0  0  0  0  0  0  0999 V2000
   49.7062   35.2933   22.2815 C   0  0  0  0  0  0  0  0  0  0  0  0
   45.9302   37.0257   23.6071 C   0  0  0  0  0  0  0  0  0  0  0  0
   48.8379   32.3201   24.8473 C   0  0  0  0  0  0  0  0  0  0  0  0
   48.6813   31.5331   26.1493 C   0  0  0  0  0  0  0  0  0  0  0  0
   49.3717   30.1649   25.9895 C   0  0  0  0  0  0  0  0  0  0  0  0
   49.3394   29.3593   27.2905 C   0  0  0  0  0  0  0  0  0  0  0  0
   49.9805   30.1374   28.4455 C   0  0  0  0  0  0  0  0  0  0  0  0
   49.2701   31.4845   28.6409 C   0  0  0  0  0  0  0  0  0  0  0  0
   49.2789   32.3118   27.3449 C   0  0  0  0  0  0  0  0  0  0  0  0
   53.9199   33.1367   21.3208 C   0  0  0  0  0  0  0  0  0  0  0  0
   54.1950   32.7827   22.6551 C   0  0  0  0  0  0  0  0  0  0  0  0
   53.3788   33.2677   23.6919 C   0  0  0  0  0  0  0  0  0  0  0  0
   52.2811   34.0929   23.3887 C   0  0  0  0  0  0  0  0  0  0  0  0
   49.3575   34.3144   23.1169 N   0  0  0  0  0  0  0  0  0  0  0  0
   48.2202   34.3886   23.8394 C   0  0  0  0  0  0  0  0  0  0  0  0
   47.9527   33.4370   24.8002 O   0  0  0  0  0  0  0  0  0  0  0  0
   47.3803   35.5051   23.6436 C   0  0  0  0  0  0  0  0  0  0  0  0
   46.1711   35.8957   24.2031 N   0  0  0  0  0  0  0  0  0  0  0  0
   46.8878   37.4312   22.7186 N   0  0  0  0  0  0  0  0  0  0  0  0
   47.8243   36.4333   22.7259 C   0  0  0  0  0  0  0  0  0  0  0  0
   48.9772   36.3771   21.9912 N   0  0  0  0  0  0  0  0  0  0  0  0
   50.9362   35.2399   21.7355 N   0  0  0  0  0  0  0  0  0  0  0  0
   51.9759   34.4305   22.0489 C   0  0  0  0  0  0  0  0  0  0  0  0
   52.8214   33.9663   21.0201 C   0  0  0  0  0  0  0  0  0  0  0  0
   45.0353   37.5898   23.7999 H   0  0  0  0  0  0  0  0  0  0  0  0
   49.8869   32.6141   24.7846 H   0  0  0  0  0  0  0  0  0  0  0  0
   48.6296   31.6849   23.9846 H   0  0  0  0  0  0  0  0  0  0  0  0
   47.6196   31.3599   26.3320 H   0  0  0  0  0  0  0  0  0  0  0  0
   48.8868   29.5954   25.1962 H   0  0  0  0  0  0  0  0  0  0  0  0
   50.4081   30.3036   25.6789 H   0  0  0  0  0  0  0  0  0  0  0  0
   48.3028   29.1534   27.5433 H   0  0  0  0  0  0  0  0  0  0  0  0
   49.8364   28.3974   27.1566 H   0  0  0  0  0  0  0  0  0  0  0  0
   49.9234   29.5544   29.3651 H   0  0  0  0  0  0  0  0  0  0  0  0
   51.0400   30.3023   28.2436 H   0  0  0  0  0  0  0  0  0  0  0  0
   48.2398   31.3156   28.9588 H   0  0  0  0  0  0  0  0  0  0  0  0
   49.7483   32.0457   29.4428 H   0  0  0  0  0  0  0  0  0  0  0  0
   50.3065   32.6025   27.1205 H   0  0  0  0  0  0  0  0  0  0  0  0
   48.7265   33.2405   27.4982 H   0  0  0  0  0  0  0  0  0  0  0  0
   54.5566   32.7798   20.5255 H   0  0  0  0  0  0  0  0  0  0  0  0
   53.5935   33.0128   24.7195 H   0  0  0  0  0  0  0  0  0  0  0  0
   51.6721   34.4602   24.1997 H   0  0  0  0  0  0  0  0  0  0  0  0
   46.9102   38.2663   22.1423 H   0  0  0  0  0  0  0  0  0  0  0  0
   51.0817   35.8298   20.9262 H   0  0  0  0  0  0  0  0  0  0  0  0
   52.6299   34.2366   19.9926 H   0  0  0  0  0  0  0  0  0  0  0  0
   55.3757   31.9153   22.9764 S   0  0  0  0  0  0  0  0  0  0  0  0
   55.8451   31.3170   21.7325 O   0  0  0  0  0  0  0  0  0  0  0  0
   56.2703   32.6766   23.8401 O   0  0  0  0  0  0  0  0  0  0  0  0
   54.8264   30.5951   23.9390 N   0  0  0  0  0  0  0  0  0  0  0  0
   54.4733   29.7694   23.4767 H   0  0  0  0  0  0  0  0  0  0  0  0
   54.7436   30.7652   25.3756 C   0  0  0  0  0  0  0  0  0  0  0  0
   54.3794   29.8269   25.7940 H   0  0  0  0  0  0  0  0  0  0  0  0
   55.7460   30.9996   25.7340 H   0  0  0  0  0  0  0  0  0  0  0  0
   54.0497   31.5837   25.5670 H   0  0  0  0  0  0  0  0  0  0  0  0
  1 14  1  0  0  0  0
  1 21  2  0  0  0  0
  1 22  1  0  0  0  0
  2 18  2  0  0  0  0
  2 19  1  0  0  0  0
  2 25  1  0  0  0  0
  3  4  1  0  0  0  0
  3 16  1  0  0  0  0
  3 26  1  0  0  0  0
  3 27  1  0  0  0  0
  4  5  1  0  0  0  0
  4  9  1  0  0  0  0
  4 28  1  0  0  0  0
  5  6  1  0  0  0  0
  5 29  1  0  0  0  0
  5 30  1  0  0  0  0
  6  7  1  0  0  0  0
  6 31  1  0  0  0  0
  6 32  1  0  0  0  0
  7  8  1  0  0  0  0
  7 33  1  0  0  0  0
  7 34  1  0  0  0  0
  8  9  1  0  0  0  0
  8 35  1  0  0  0  0
  8 36  1  0  0  0  0
  9 37  1  0  0  0  0
  9 38  1  0  0  0  0
 10 11  1  0  0  0  0
 10 24  2  0  0  0  0
 10 39  1  0  0  0  0
 11 12  2  0  0  0  0
 11 45  1  0  0  0  0
 12 13  1  0  0  0  0
 12 40  1  0  0  0  0
 13 23  2  0  0  0  0
 13 41  1  0  0  0  0
 14 15  2  0  0  0  0
 15 16  1  0  0  0  0
 15 17  1  0  0  0  0
 17 18  1  0  0  0  0
 17 20  2  0  0  0  0
 19 20  1  0  0  0  0
 19 42  1  0  0  0  0
 20 21  1  0  0  0  0
 22 23  1  0  0  0  0
 22 43  1  0  0  0  0
 23 24  1  0  0  0  0
 24 44  1  0  0  0  0
 45 46  2  0  0  0  0
 45 47  2  0  0  0  0
 45 48  1  0  0  0  0
 48 49  1  0  0  0  0
 48 50  1  0  0  0  0
 50 51  1  0  0  0  0
 50 52  1  0  0  0  0
 50 53  1  0  0  0  0
M  END
>  <r_user_dG.exp>
-11.112000

$$$$
1oiy
  PyMOL2.3          3D                             0

 49 52  0  0  0  0  0  0  0  0999 V2000
   49.7062   35.2933   22.2815 C   0  0  0  0  0  0  0  0  0  0  0  0
   45.9302   37.0257   23.6071 C   0  0  0  0  0  0  0  0  0  0  0  0
   48.8379   32.3201   24.8473 C   0  0  0  0  0  0  0  0  0  0  0  0
   48.6813   31.5331   26.1493 C   0  0  0  0  0  0  0  0  0  0  0  0
   49.3717   30.1649   25.9895 C   0  0  0  0  0  0  0  0  0  0  0  0
   49.3394   29.3593   27.2905 C   0  0  0  0  0  0  0  0  0  0  0  0
   49.9805   30.1374   28.4455 C   0  0  0  0  0  0  0  0  0  0  0  0
   49.2701   31.4845   28.6409 C   0  0  0  0  0  0  0  0  0  0  0  0
   49.2789   32.3118   27.3449 C   0  0  0  0  0  0  0  0  0  0  0  0
   53.9199   33.1367   21.3208 C   0  0  0  0  0  0  0  0  0  0  0  0
   54.1950   32.7827   22.6551 C   0  0  0  0  0  0  0  0  0  0  0  0
   53.3788   33.2677   23.6919 C   0  0  0  0  0  0  0  0  0  0  0  0
   52.2811   34.0929   23.3887 C   0  0  0  0  0  0  0  0  0  0  0  0
   49.3575   34.3144   23.1169 N   0  0  0  0  0  0  0  0  0  0  0  0
   48.2202   34.3886   23.8394 C   0  0  0  0  0  0  0  0  0  0  0  0
   47.9527   33.4370   24.8002 O   0  0  0  0  0  0  0  0  0  0  0  0
   47.3803   35.5051   23.6436 C   0  0  0  0  0  0  0  0  0  0  0  0
   46.1711   35.8957   24.2031 N   0  0  0  0  0  0  0  0  0  0  0  0
   46.8878   37.4312   22.7186 N   0  0  0  0  0  0  0  0  0  0  0  0
   47.8243   36.4333   22.7259 C   0  0  0  0  0  0  0  0  0  0  0  0
   48.9772   36.3771   21.9912 N   0  0  0  0  0  0  0  0  0  0  0  0
   50.9362   35.2399   21.7355 N   0  0  0  0  0  0  0  0  0  0  0  0
   51.9759   34.4305   22.0489 C   0  0  0  0  0  0  0  0  0  0  0  0
   52.8214   33.9663   21.0201 C   0  0  0  0  0  0  0  0  0  0  0  0
   45.0353   37.5898   23.7999 H   0  0  0  0  0  0  0  0  0  0  0  0
   49.8869   32.6141   24.7846 H   0  0  0  0  0  0  0  0  0  0  0  0
   48.6296   31.6849   23.9846 H   0  0  0  0  0  0  0  0  0  0  0  0
   47.6196   31.3599   26.3320 H   0  0  0  0  0  0  0  0  0  0  0  0
   48.8868   29.5954   25.1962 H   0  0  0  0  0  0  0  0  0  0  0  0
   50.4081   30.3036   25.6789 H   0  0  0  0  0  0  0  0  0  0  0  0
   48.3028   29.1534   27.5433 H   0  0  0  0  0  0  0  0  0  0  0  0
   49.8364   28.3974   27.1566 H   0  0  0  0  0  0  0  0  0  0  0  0
   49.9234   29.5544   29.3651 H   0  0  0  0  0  0  0  0  0  0  0  0
   51.0400   30.3023   28.2436 H   0  0  0  0  0  0  0  0  0  0  0  0
   48.2398   31.3156   28.9588 H   0  0  0  0  0  0  0  0  0  0  0  0
   49.7483   32.0457   29.4428 H   0  0  0  0  0  0  0  0  0  0  0  0
   50.3065   32.6025   27.1205 H   0  0  0  0  0  0  0  0  0  0  0  0
   48.7265   33.2405   27.4982 H   0  0  0  0  0  0  0  0  0  0  0  0
   54.5566   32.7798   20.5255 H   0  0  0  0  0  0  0  0  0  0  0  0
   53.5935   33.0128   24.7195 H   0  0  0  0  0  0  0  0  0  0  0  0
   51.6721   34.4602   24.1997 H   0  0  0  0  0  0  0  0  0  0  0  0
   46.9102   38.2663   22.1423 H   0  0  0  0  0  0  0  0  0  0  0  0
   51.0817   35.8298   20.9262 H   0  0  0  0  0  0  0  0  0  0  0  0
   52.6299   34.2366   19.9926 H   0  0  0  0  0  0  0  0  0  0  0  0
   56.1300   31.6550   22.0360 O   0  0  0  0  0  0  0  0  0  0  0  0
   55.3466   31.9367   22.9685 C   0  0  0  0  0  0  0  0  0  0  0  0
   55.5022   31.4700   24.3856 N   0  0  0  0  0  0  0  0  0  0  0  0
   54.6751   31.8636   24.9947 H   0  0  0  0  0  0  0  0  0  0  0  0
   56.2843   30.8844   24.6415 H   0  0  0  0  0  0  0  0  0  0  0  0
  1 14  1  0  0  0  0
  1 21  2  0  0  0  0
  1 22  1  0  0  0  0
  2 18  2  0  0  0  0
  2 19  1  0  0  0  0
  2 25  1  0  0  0  0
  3  4  1  0  0  0  0
  3 16  1  0  0  0  0
  3 26  1  0  0  0  0
  3 27  1  0  0  0  0
  4  5  1  0  0  0  0
  4  9  1  0  0  0  0
  4 28  1  0  0  0  0
  5  6  1  0  0  0  0
  5 29  1  0  0  0  0
  5 30  1  0  0  0  0
  6  7  1  0  0  0  0
  6 31  1  0  0  0  0
  6 32  1  0  0  0  0
  7  8  1  0  0  0  0
  7 33  1  0  0  0  0
  7 34  1  0  0  0  0
  8  9  1  0  0  0  0
  8 35  1  0  0  0  0
  8 36  1  0  0  0  0
  9 37  1  0  0  0  0
  9 38  1  0  0  0  0
 10 11  1  0  0  0  0
 10 24  2  0  0  0  0
 10 39  1  0  0  0  0
 11 12  2  0  0  0  0
 11 46  1  0  0  0  0
 12 13  1  0  0  0  0
 12 40  1  0  0  0  0
 13 23  2  0  0  0  0
 13 41  1  0  0  0  0
 14 15  2  0  0  0  0
 15 16  1  0  0  0  0
 15 17  1  0  0  0  0
 17 18  1  0  0  0  0
 17 20  2  0  0  0  0
 19 20  1  0  0  0  0
 19 42  1  0  0  0  0
 20 21  1  0  0  0  0
 22 23  1  0  0  0  0
 22 43  1  0  0  0  0
 23 24  1  0  0  0  0
 24 44  1  0  0  0  0
 45 46  2  0  0  0  0
 46 47  1  0  0  0  0
 47 48  1  0  0  0  0
 47 49  1  0  0  0  0
M  END
>  <r_user_dG.exp>
-9.785000

$$$$
1oi9
  PyMOL2.3          3D                             0

 46 49  0  0  0  0  0  0  0  0999 V2000
   49.7062   35.2933   22.2815 C   0  0  0  0  0  0  0  0  0  0  0  0
   45.9302   37.0257   23.6071 C   0  0  0  0  0  0  0  0  0  0  0  0
   48.8379   32.3201   24.8473 C   0  0  0  0  0  0  0  0  0  0  0  0
   48.6813   31.5331   26.1493 C   0  0  0  0  0  0  0  0  0  0  0  0
   49.3717   30.1649   25.9895 C   0  0  0  0  0  0  0  0  0  0  0  0
   49.3394   29.3593   27.2905 C   0  0  0  0  0  0  0  0  0  0  0  0
   49.9805   30.1374   28.4455 C   0  0  0  0  0  0  0  0  0  0  0  0
   49.2701   31.4845   28.6409 C   0  0  0  0  0  0  0  0  0  0  0  0
   49.2789   32.3118   27.3449 C   0  0  0  0  0  0  0  0  0  0  0  0
   53.9199   33.1367   21.3208 C   0  0  0  0  0  0  0  0  0  0  0  0
   54.1950   32.7827   22.6551 C   0  0  0  0  0  0  0  0  0  0  0  0
   53.3788   33.2677   23.6919 C   0  0  0  0  0  0  0  0  0  0  0  0
   52.2811   34.0929   23.3887 C   0  0  0  0  0  0  0  0  0  0  0  0
   49.3575   34.3144   23.1169 N   0  0  0  0  0  0  0  0  0  0  0  0
   48.2202   34.3886   23.8394 C   0  0  0  0  0  0  0  0  0  0  0  0
   47.9527   33.4370   24.8002 O   0  0  0  0  0  0  0  0  0  0  0  0
   47.3803   35.5051   23.6436 C   0  0  0  0  0  0  0  0  0  0  0  0
   46.1711   35.8957   24.2031 N   0  0  0  0  0  0  0  0  0  0  0  0
   46.8878   37.4312   22.7186 N   0  0  0  0  0  0  0  0  0  0  0  0
   47.8243   36.4333   22.7259 C   0  0  0  0  0  0  0  0  0  0  0  0
   48.9772   36.3771   21.9912 N   0  0  0  0  0  0  0  0  0  0  0  0
   50.9362   35.2399   21.7355 N   0  0  0  0  0  0  0  0  0  0  0  0
   51.9759   34.4305   22.0489 C   0  0  0  0  0  0  0  0  0  0  0  0
   52.8214   33.9663   21.0201 C   0  0  0  0  0  0  0  0  0  0  0  0
   45.0353   37.5898   23.7999 H   0  0  0  0  0  0  0  0  0  0  0  0
   49.8869   32.6141   24.7846 H   0  0  0  0  0  0  0  0  0  0  0  0
   48.6296   31.6849   23.9846 H   0  0  0  0  0  0  0  0  0  0  0  0
   47.6196   31.3599   26.3320 H   0  0  0  0  0  0  0  0  0  0  0  0
   48.8868   29.5954   25.1962 H   0  0  0  0  0  0  0  0  0  0  0  0
   50.4081   30.3036   25.6789 H   0  0  0  0  0  0  0  0  0  0  0  0
   48.3028   29.1534   27.5433 H   0  0  0  0  0  0  0  0  0  0  0  0
   49.8364   28.3974   27.1566 H   0  0  0  0  0  0  0  0  0  0  0  0
   49.9234   29.5544   29.3651 H   0  0  0  0  0  0  0  0  0  0  0  0
   51.0400   30.3023   28.2436 H   0  0  0  0  0  0  0  0  0  0  0  0
   48.2398   31.3156   28.9588 H   0  0  0  0  0  0  0  0  0  0  0  0
   49.7483   32.0457   29.4428 H   0  0  0  0  0  0  0  0  0  0  0  0
   50.3065   32.6025   27.1205 H   0  0  0  0  0  0  0  0  0  0  0  0
   48.7265   33.2405   27.4982 H   0  0  0  0  0  0  0  0  0  0  0  0
   54.5566   32.7798   20.5255 H   0  0  0  0  0  0  0  0  0  0  0  0
   53.5935   33.0128   24.7195 H   0  0  0  0  0  0  0  0  0  0  0  0
   51.6721   34.4602   24.1997 H   0  0  0  0  0  0  0  0  0  0  0  0
   46.9102   38.2663   22.1423 H   0  0  0  0  0  0  0  0  0  0  0  0
   51.0817   35.8298   20.9262 H   0  0  0  0  0  0  0  0  0  0  0  0
   52.6299   34.2366   19.9926 H   0  0  0  0  0  0  0  0  0  0  0  0
   55.2687   31.9939   22.9473 O   0  0  0  0  0  0  0  0  0  0  0  0
   55.3177   31.8470   23.8795 H   0  0  0  0  0  0  0  0  0  0  0  0
  1 14  1  0  0  0  0
  1 21  2  0  0  0  0
  1 22  1  0  0  0  0
  2 18  2  0  0  0  0
  2 19  1  0  0  0  0
  2 25  1  0  0  0  0
  3  4  1  0  0  0  0
  3 16  1  0  0  0  0
  3 26  1  0  0  0  0
  3 27  1  0  0  0  0
  4  5  1  0  0  0  0
  4  9  1  0  0  0  0
  4 28  1  0  0  0  0
  5  6  1  0  0  0  0
  5 29  1  0  0  0  0
  5 30  1  0  0  0  0
  6  7  1  0  0  0  0
  6 31  1  0  0  0  0
  6 32  1  0  0  0  0
  7  8  1  0  0  0  0
  7 33  1  0  0  0  0
  7 34  1  0  0  0  0
  8  9  1  0  0  0  0
  8 35  1  0  0  0  0
  8 36  1  0  0  0  0
  9 37  1  0  0  0  0
  9 38  1  0  0  0  0
 10 11  1  0  0  0  0
 10 24  2  0  0  0  0
 10 39  1  0  0  0  0
 11 12  2  0  0  0  0
 11 45  1  0  0  0  0
 12 13  1  0  0  0  0
 12 40  1  0  0  0  0
 13 23  2  0  0  0  0
 13 41  1  0  0  0  0
 14 15  2  0  0  0  0
 15 16  1  0  0  0  0
 15 17  1  0  0  0  0
 17 18  1  0  0  0  0
 17 20  2  0  0  0  0
 19 20  1  0  0  0  0
 19 42  1  0  0  0  0
 20 21  1  0  0  0  0
 22 23  1  0  0  0  0
 22 43  1  0  0  0  0
 23 24  1  0  0  0  0
 24 44  1  0  0  0  0
 45 46  1  0  0  0  0
M  END
>  <r_user_dG.exp>
-9.741000

$$$$
32
  PyMOL2.3          3D                             0

 54 57  0  0  0  0  0  0  0  0999 V2000
   49.7062   35.2933   22.2815 C   0  0  0  0  0  0  0  0  0  0  0  0
   45.9302   37.0257   23.6071 C   0  0  0  0  0  0  0  0  0  0  0  0
   48.8379   32.3201   24.8473 C   0  0  0  0  0  0  0  0  0  0  0  0
   48.6813   31.5331   26.1493 C   0  0  0  0  0  0  0  0  0  0  0  0
   49.3717   30.1649   25.9895 C   0  0  0  0  0  0  0  0  0  0  0  0
   49.3394   29.3593   27.2905 C   0  0  0  0  0  0  0  0  0  0  0  0
   49.9805   30.1374   28.4455 C   0  0  0  0  0  0  0  0  0  0  0  0
   49.2701   31.4845   28.6409 C   0  0  0  0  0  0  0  0  0  0  0  0
   49.2789   32.3118   27.3449 C   0  0  0  0  0  0  0  0  0  0  0  0
   53.9199   33.1367   21.3208 C   0  0  0  0  0  0  0  0  0  0  0  0
   54.1950   32.7827   22.6551 C   0  0  0  0  0  0  0  0  0  0  0  0
   53.3788   33.2677   23.6919 C   0  0  0  0  0  0  0  0  0  0  0  0
   52.2811   34.0929   23.3887 C   0  0  0  0  0  0  0  0  0  0  0  0
   49.3575   34.3144   23.1169 N   0  0  0  0  0  0  0  0  0  0  0  0
   48.2202   34.3886   23.8394 C   0  0  0  0  0  0  0  0  0  0  0  0
   47.9527   33.4370   24.8002 O   0  0  0  0  0  0  0  0  0  0  0  0
   47.3803   35.5051   23.6436 C   0  0  0  0  0  0  0  0  0  0  0  0
   46.1711   35.8957   24.2031 N   0  0  0  0  0  0  0  0  0  0  0  0
   46.8878   37.4312   22.7186 N   0  0  0  0  0  0  0  0  0  0  0  0
   47.8243   36.4333   22.7259 C   0  0  0  0  0  0  0  0  0  0  0  0
   48.9772   36.3771   21.9912 N   0  0  0  0  0  0  0  0  0  0  0  0
   50.9362   35.2399   21.7355 N   0  0  0  0  0  0  0  0  0  0  0  0
   51.9759   34.4305   22.0489 C   0  0  0  0  0  0  0  0  0  0  0  0
   52.8214   33.9663   21.0201 C   0  0  0  0  0  0  0  0  0  0  0  0
   45.0353   37.5898   23.7999 H   0  0  0  0  0  0  0  0  0  0  0  0
   49.8869   32.6141   24.7846 H   0  0  0  0  0  0  0  0  0  0  0  0
   48.6296   31.6849   23.9846 H   0  0  0  0  0  0  0  0  0  0  0  0
   47.6196   31.3599   26.3320 H   0  0  0  0  0  0  0  0  0  0  0  0
   48.8868   29.5954   25.1962 H   0  0  0  0  0  0  0  0  0  0  0  0
   50.4081   30.3036   25.6789 H   0  0  0  0  0  0  0  0  0  0  0  0
   48.3028   29.1534   27.5433 H   0  0  0  0  0  0  0  0  0  0  0  0
   49.8364   28.3974   27.1566 H   0  0  0  0  0  0  0  0  0  0  0  0
   49.9234   29.5544   29.3651 H   0  0  0  0  0  0  0  0  0  0  0  0
   51.0400   30.3023   28.2436 H   0  0  0  0  0  0  0  0  0  0  0  0
   48.2398   31.3156   28.9588 H   0  0  0  0  0  0  0  0  0  0  0  0
   49.7483   32.0457   29.4428 H   0  0  0  0  0  0  0  0  0  0  0  0
   50.3065   32.6025   27.1205 H   0  0  0  0  0  0  0  0  0  0  0  0
   48.7265   33.2405   27.4982 H   0  0  0  0  0  0  0  0  0  0  0  0
   54.5566   32.7798   20.5255 H   0  0  0  0  0  0  0  0  0  0  0  0
   51.6721   34.4602   24.1997 H   0  0  0  0  0  0  0  0  0  0  0  0
   46.9102   38.2663   22.1423 H   0  0  0  0  0  0  0  0  0  0  0  0
   51.0817   35.8298   20.9262 H   0  0  0  0  0  0  0  0  0  0  0  0
   52.6299   34.2366   19.9926 H   0  0  0  0  0  0  0  0  0  0  0  0
   55.3757   31.9153   22.9764 S   0  0  0  0  0  0  0  0  0  0  0  0
   55.8451   31.3170   21.7325 O   0  0  0  0  0  0  0  0  0  0  0  0
   56.2703   32.6766   23.8401 O   0  0  0  0  0  0  0  0  0  0  0  0
   54.8264   30.5951   23.9390 N   0  0  0  0  0  0  0  0  0  0  0  0
   54.4733   29.7694   23.4767 H   0  0  0  0  0  0  0  0  0  0  0  0
   54.7687   30.7137   24.9403 H   0  0  0  0  0  0  0  0  0  0  0  0
   53.6499   32.9459   24.9894 O   0  0  0  0  0  0  0  0  0  0  0  0
   52.7007   33.5444   25.8432 C   0  0  0  0  0  0  0  0  0  0  0  0
   52.9312   33.2750   26.9043 H   0  0  0  0  0  0  0  0  0  0  0  0
   52.7402   34.6562   25.7237 H   0  0  0  0  0  0  0  0  0  0  0  0
   51.6773   33.1771   25.5790 H   0  0  0  0  0  0  0  0  0  0  0  0
  1 14  1  0  0  0  0
  1 21  2  0  0  0  0
  1 22  1  0  0  0  0
  2 18  2  0  0  0  0
  2 19  1  0  0  0  0
  2 25  1  0  0  0  0
  3  4  1  0  0  0  0
  3 16  1  0  0  0  0
  3 26  1  0  0  0  0
  3 27  1  0  0  0  0
  4  5  1  0  0  0  0
  4  9  1  0  0  0  0
  4 28  1  0  0  0  0
  5  6  1  0  0  0  0
  5 29  1  0  0  0  0
  5 30  1  0  0  0  0
  6  7  1  0  0  0  0
  6 31  1  0  0  0  0
  6 32  1  0  0  0  0
  7  8  1  0  0  0  0
  7 33  1  0  0  0  0
  7 34  1  0  0  0  0
  8  9  1  0  0  0  0
  8 35  1  0  0  0  0
  8 36  1  0  0  0  0
  9 37  1  0  0  0  0
  9 38  1  0  0  0  0
 10 11  1  0  0  0  0
 10 24  2  0  0  0  0
 10 39  1  0  0  0  0
 11 12  2  0  0  0  0
 11 44  1  0  0  0  0
 12 13  1  0  0  0  0
 12 50  1  0  0  0  0
 13 23  2  0  0  0  0
 13 40  1  0  0  0  0
 14 15  2  0  0  0  0
 15 16  1  0  0  0  0
 15 17  1  0  0  0  0
 17 18  1  0  0  0  0
 17 20  2  0  0  0  0
 19 20  1  0  0  0  0
 19 41  1  0  0  0  0
 20 21  1  0  0  0  0
 22 23  1  0  0  0  0
 22 42  1  0  0  0  0
 23 24  1  0  0  0  0
 24 43  1  0  0  0  0
 44 45  2  0  0  0  0
 44 46  2  0  0  0  0
 44 47  1  0  0  0  0
 47 49  1  0  0  0  0
 47 48  1  0  0  0  0
 50 51  1  0  0  0  0
 51 52  1  0  0  0  0
 51 53  1  0  0  0  0
 51 54  1  0  0  0  0
M  END
>  <r_user_dG.exp>
-9.750000

$$$$
1oiu
  PyMOL2.3          3D                             0

 50 53  0  0  0  0  0  0  0  0999 V2000
   49.7062   35.2933   22.2815 C   0  0  0  0  0  0  0  0  0  0  0  0
   45.9302   37.0257   23.6071 C   0  0  0  0  0  0  0  0  0  0  0  0
   48.8379   32.3201   24.8473 C   0  0  0  0  0  0  0  0  0  0  0  0
   48.6813   31.5331   26.1493 C   0  0  0  0  0  0  0  0  0  0  0  0
   49.3717   30.1649   25.9895 C   0  0  0  0  0  0  0  0  0  0  0  0
   49.3394   29.3593   27.2905 C   0  0  0  0  0  0  0  0  0  0  0  0
   49.9805   30.1374   28.4455 C   0  0  0  0  0  0  0  0  0  0  0  0
   49.2701   31.4845   28.6409 C   0  0  0  0  0  0  0  0  0  0  0  0
   49.2789   32.3118   27.3449 C   0  0  0  0  0  0  0  0  0  0  0  0
   53.9199   33.1367   21.3208 C   0  0  0  0  0  0  0  0  0  0  0  0
   54.1950   32.7827   22.6551 C   0  0  0  0  0  0  0  0  0  0  0  0
   53.3788   33.2677   23.6919 C   0  0  0  0  0  0  0  0  0  0  0  0
   52.2811   34.0929   23.3887 C   0  0  0  0  0  0  0  0  0  0  0  0
   49.3575   34.3144   23.1169 N   0  0  0  0  0  0  0  0  0  0  0  0
   48.2202   34.3886   23.8394 C   0  0  0  0  0  0  0  0  0  0  0  0
   47.9527   33.4370   24.8002 O   0  0  0  0  0  0  0  0  0  0  0  0
   47.3803   35.5051   23.6436 C   0  0  0  0  0  0  0  0  0  0  0  0
   46.1711   35.8957   24.2031 N   0  0  0  0  0  0  0  0  0  0  0  0
   46.8878   37.4312   22.7186 N   0  0  0  0  0  0  0  0  0  0  0  0
   47.8243   36.4333   22.7259 C   0  0  0  0  0  0  0  0  0  0  0  0
   48.9772   36.3771   21.9912 N   0  0  0  0  0  0  0  0  0  0  0  0
   50.9362   35.2399   21.7355 N   0  0  0  0  0  0  0  0  0  0  0  0
   51.9759   34.4305   22.0489 C   0  0  0  0  0  0  0  0  0  0  0  0
   52.8214   33.9663   21.0201 C   0  0  0  0  0  0  0  0  0  0  0  0
   45.0353   37.5898   23.7999 H   0  0  0  0  0  0  0  0  0  0  0  0
   49.8869   32.6141   24.7846 H   0  0  0  0  0  0  0  0  0  0  0  0
   48.6296   31.6849   23.9846 H   0  0  0  0  0  0  0  0  0  0  0  0
   47.6196   31.3599   26.3320 H   0  0  0  0  0  0  0  0  0  0  0  0
   48.8868   29.5954   25.1962 H   0  0  0  0  0  0  0  0  0  0  0  0
   50.4081   30.3036   25.6789 H   0  0  0  0  0  0  0  0  0  0  0  0
   48.3028   29.1534   27.5433 H   0  0  0  0  0  0  0  0  0  0  0  0
   49.8364   28.3974   27.1566 H   0  0  0  0  0  0  0  0  0  0  0  0
   49.9234   29.5544   29.3651 H   0  0  0  0  0  0  0  0  0  0  0  0
   51.0400   30.3023   28.2436 H   0  0  0  0  0  0  0  0  0  0  0  0
   48.2398   31.3156   28.9588 H   0  0  0  0  0  0  0  0  0  0  0  0
   49.7483   32.0457   29.4428 H   0  0  0  0  0  0  0  0  0  0  0  0
   50.3065   32.6025   27.1205 H   0  0  0  0  0  0  0  0  0  0  0  0
   48.7265   33.2405   27.4982 H   0  0  0  0  0  0  0  0  0  0  0  0
   55.0442   32.1588   22.8862 H   0  0  0  0  0  0  0  0  0  0  0  0
   53.5935   33.0128   24.7195 H   0  0  0  0  0  0  0  0  0  0  0  0
   51.6721   34.4602   24.1997 H   0  0  0  0  0  0  0  0  0  0  0  0
   46.9102   38.2663   22.1423 H   0  0  0  0  0  0  0  0  0  0  0  0
   51.0817   35.8298   20.9262 H   0  0  0  0  0  0  0  0  0  0  0  0
   52.6299   34.2366   19.9926 H   0  0  0  0  0  0  0  0  0  0  0  0
   54.8045   32.6407   20.2157 S   0  0  0  0  0  0  0  0  0  0  0  0
   54.7001   31.1871   20.1752 O   0  0  0  0  0  0  0  0  0  0  0  0
   54.5472   33.4557   19.0345 O   0  0  0  0  0  0  0  0  0  0  0  0
   56.4404   32.9687   20.6488 N   0  0  0  0  0  0  0  0  0  0  0  0
   56.9388   32.2957   21.2135 H   0  0  0  0  0  0  0  0  0  0  0  0
   56.8326   33.8713   20.4213 H   0  0  0  0  0  0  0  0  0  0  0  0
  1 14  1  0  0  0  0
  1 21  2  0  0  0  0
  1 22  1  0  0  0  0
  2 18  2  0  0  0  0
  2 19  1  0  0  0  0
  2 25  1  0  0  0  0
  3  4  1  0  0  0  0
  3 16  1  0  0  0  0
  3 26  1  0  0  0  0
  3 27  1  0  0  0  0
  4  5  1  0  0  0  0
  4  9  1  0  0  0  0
  4 28  1  0  0  0  0
  5  6  1  0  0  0  0
  5 29  1  0  0  0  0
  5 30  1  0  0  0  0
  6  7  1  0  0  0  0
  6 31  1  0  0  0  0
  6 32  1  0  0  0  0
  7  8  1  0  0  0  0
  7 33  1  0  0  0  0
  7 34  1  0  0  0  0
  8  9  1  0  0  0  0
  8 35  1  0  0  0  0
  8 36  1  0  0  0  0
  9 37  1  0  0  0  0
  9 38  1  0  0  0  0
 10 11  1  0  0  0  0
 10 24  2  0  0  0  0
 10 45  1  0  0  0  0
 11 12  2  0  0  0  0
 11 39  1  0  0  0  0
 12 13  1  0  0  0  0
 12 40  1  0  0  0  0
 13 23  2  0  0  0  0
 13 41  1  0  0  0  0
 14 15  2  0  0  0  0
 15 16  1  0  0  0  0
 15 17  1  0  0  0  0
 17 18  1  0  0  0  0
 17 20  2  0  0  0  0
 19 20  1  0  0  0  0
 19 42  1  0  0  0  0
 20 21  1  0  0  0  0
 22 23  1  0  0  0  0
 22 43  1  0  0  0  0
 23 24  1  0  0  0  0
 24 44  1  0  0  0  0
 45 46  2  0  0  0  0
 45 47  2  0  0  0  0
 45 48  1  0  0  0  0
 48 49  1  0  0  0  0
 48 50  1  0  0  0  0
M  END
>  <r_user_dG.exp>
-9.083000

$$$$
29
  PyMOL2.3          3D                             0

 56 59  0  0  0  0  0  0  0  0999 V2000
   49.7062   35.2933   22.2815 C   0  0  0  0  0  0  0  0  0  0  0  0
   45.9302   37.0257   23.6071 C   0  0  0  0  0  0  0  0  0  0  0  0
   48.8379   32.3201   24.8473 C   0  0  0  0  0  0  0  0  0  0  0  0
   48.6813   31.5331   26.1493 C   0  0  0  0  0  0  0  0  0  0  0  0
   49.3717   30.1649   25.9895 C   0  0  0  0  0  0  0  0  0  0  0  0
   49.3394   29.3593   27.2905 C   0  0  0  0  0  0  0  0  0  0  0  0
   49.9805   30.1374   28.4455 C   0  0  0  0  0  0  0  0  0  0  0  0
   49.2701   31.4845   28.6409 C   0  0  0  0  0  0  0  0  0  0  0  0
   49.2789   32.3118   27.3449 C   0  0  0  0  0  0  0  0  0  0  0  0
   53.9199   33.1367   21.3208 C   0  0  0  0  0  0  0  0  0  0  0  0
   54.1950   32.7827   22.6551 C   0  0  0  0  0  0  0  0  0  0  0  0
   53.3788   33.2677   23.6919 C   0  0  0  0  0  0  0  0  0  0  0  0
   52.2811   34.0929   23.3887 C   0  0  0  0  0  0  0  0  0  0  0  0
   49.3575   34.3144   23.1169 N   0  0  0  0  0  0  0  0  0  0  0  0
   48.2202   34.3886   23.8394 C   0  0  0  0  0  0  0  0  0  0  0  0
   47.9527   33.4370   24.8002 O   0  0  0  0  0  0  0  0  0  0  0  0
   47.3803   35.5051   23.6436 C   0  0  0  0  0  0  0  0  0  0  0  0
   46.1711   35.8957   24.2031 N   0  0  0  0  0  0  0  0  0  0  0  0
   46.8878   37.4312   22.7186 N   0  0  0  0  0  0  0  0  0  0  0  0
   47.8243   36.4333   22.7259 C   0  0  0  0  0  0  0  0  0  0  0  0
   48.9772   36.3771   21.9912 N   0  0  0  0  0  0  0  0  0  0  0  0
   50.9362   35.2399   21.7355 N   0  0  0  0  0  0  0  0  0  0  0  0
   51.9759   34.4305   22.0489 C   0  0  0  0  0  0  0  0  0  0  0  0
   52.8214   33.9663   21.0201 C   0  0  0  0  0  0  0  0  0  0  0  0
   45.0353   37.5898   23.7999 H   0  0  0  0  0  0  0  0  0  0  0  0
   49.8869   32.6141   24.7846 H   0  0  0  0  0  0  0  0  0  0  0  0
   48.6296   31.6849   23.9846 H   0  0  0  0  0  0  0  0  0  0  0  0
   47.6196   31.3599   26.3320 H   0  0  0  0  0  0  0  0  0  0  0  0
   48.8868   29.5954   25.1962 H   0  0  0  0  0  0  0  0  0  0  0  0
   50.4081   30.3036   25.6789 H   0  0  0  0  0  0  0  0  0  0  0  0
   48.3028   29.1534   27.5433 H   0  0  0  0  0  0  0  0  0  0  0  0
   49.8364   28.3974   27.1566 H   0  0  0  0  0  0  0  0  0  0  0  0
   49.9234   29.5544   29.3651 H   0  0  0  0  0  0  0  0  0  0  0  0
   51.0400   30.3023   28.2436 H   0  0  0  0  0  0  0  0  0  0  0  0
   48.2398   31.3156   28.9588 H   0  0  0  0  0  0  0  0  0  0  0  0
   49.7483   32.0457   29.4428 H   0  0  0  0  0  0  0  0  0  0  0  0
   50.3065   32.6025   27.1205 H   0  0  0  0  0  0  0  0  0  0  0  0
   48.7265   33.2405   27.4982 H   0  0  0  0  0  0  0  0  0  0  0  0
   54.5566   32.7798   20.5255 H   0  0  0  0  0  0  0  0  0  0  0  0
   53.5935   33.0128   24.7195 H   0  0  0  0  0  0  0  0  0  0  0  0
   51.6721   34.4602   24.1997 H   0  0  0  0  0  0  0  0  0  0  0  0
   46.9102   38.2663   22.1423 H   0  0  0  0  0  0  0  0  0  0  0  0
   51.0817   35.8298   20.9262 H   0  0  0  0  0  0  0  0  0  0  0  0
   52.6299   34.2366   19.9926 H   0  0  0  0  0  0  0  0  0  0  0  0
   55.3757   31.9153   22.9764 S   0  0  0  0  0  0  0  0  0  0  0  0
   55.8451   31.3170   21.7325 O   0  0  0  0  0  0  0  0  0  0  0  0
   56.2703   32.6766   23.8401 O   0  0  0  0  0  0  0  0  0  0  0  0
   54.8977   30.7664   23.8141 N   0  0  0  0  0  0  0  0  0  0  0  0
   54.6117   29.4880   23.1948 C   0  0  0  0  0  0  0  0  0  0  0  0
   54.8060   29.5546   22.0949 H   0  0  0  0  0  0  0  0  0  0  0  0
   55.2691   28.7012   23.6427 H   0  0  0  0  0  0  0  0  0  0  0  0
   53.5391   29.2211   23.3685 H   0  0  0  0  0  0  0  0  0  0  0  0
   54.7220   30.9350   25.2424 C   0  0  0  0  0  0  0  0  0  0  0  0
   54.3625   29.9745   25.6899 H   0  0  0  0  0  0  0  0  0  0  0  0
   55.6990   31.2203   25.7073 H   0  0  0  0  0  0  0  0  0  0  0  0
   53.9689   31.7403   25.4331 H   0  0  0  0  0  0  0  0  0  0  0  0
  1 14  1  0  0  0  0
  1 21  2  0  0  0  0
  1 22  1  0  0  0  0
  2 18  2  0  0  0  0
  2 19  1  0  0  0  0
  2 25  1  0  0  0  0
  3  4  1  0  0  0  0
  3 16  1  0  0  0  0
  3 26  1  0  0  0  0
  3 27  1  0  0  0  0
  4  5  1  0  0  0  0
  4  9  1  0  0  0  0
  4 28  1  0  0  0  0
  5  6  1  0  0  0  0
  5 29  1  0  0  0  0
  5 30  1  0  0  0  0
  6  7  1  0  0  0  0
  6 31  1  0  0  0  0
  6 32  1  0  0  0  0
  7  8  1  0  0  0  0
  7 33  1  0  0  0  0
  7 34  1  0  0  0  0
  8  9  1  0  0  0  0
  8 35  1  0  0  0  0
  8 36  1  0  0  0  0
  9 37  1  0  0  0  0
  9 38  1  0  0  0  0
 10 11  1  0  0  0  0
 10 24  2  0  0  0  0
 10 39  1  0  0  0  0
 11 12  2  0  0  0  0
 11 45  1  0  0  0  0
 12 13  1  0  0  0  0
 12 40  1  0  0  0  0
 13 23  2  0  0  0  0
 13 41  1  0  0  0  0
 14 15  2  0  0  0  0
 15 16  1  0  0  0  0
 15 17  1  0  0  0  0
 17 18  1  0  0  0  0
 17 20  2  0  0  0  0
 19 20  1  0  0  0  0
 19 42  1  0  0  0  0
 20 21  1  0  0  0  0
 22 23  1  0  0  0  0
 22 43  1  0  0  0  0
 23 24  1  0  0  0  0
 24 44  1  0  0  0  0
 45 46  2  0  0  0  0
 45 47  2  0  0  0  0
 45 48  1  0  0  0  0
 48 49  1  0  0  0  0
 48 53  1  0  0  0  0
 49 50  1  0  0  0  0
 49 51  1  0  0  0  0
 49 52  1  0  0  0  0
 53 54  1  0  0  0  0
 53 55  1  0  0  0  0
 53 56  1  0  0  0  0
M  END
>  <r_user_dG.exp>
-9.882000

$$$$
1h1r
  PyMOL2.3          3D                             0

 45 48  0  0  0  0  0  0  0  0999 V2000
   49.7062   35.2933   22.2815 C   0  0  0  0  0  0  0  0  0  0  0  0
   45.9302   37.0257   23.6071 C   0  0  0  0  0  0  0  0  0  0  0  0
   48.8379   32.3201   24.8473 C   0  0  0  0  0  0  0  0  0  0  0  0
   48.6813   31.5331   26.1493 C   0  0  0  0  0  0  0  0  0  0  0  0
   49.3717   30.1649   25.9895 C   0  0  0  0  0  0  0  0  0  0  0  0
   49.3394   29.3593   27.2905 C   0  0  0  0  0  0  0  0  0  0  0  0
   49.9805   30.1374   28.4455 C   0  0  0  0  0  0  0  0  0  0  0  0
   49.2701   31.4845   28.6409 C   0  0  0  0  0  0  0  0  0  0  0  0
   49.2789   32.3118   27.3449 C   0  0  0  0  0  0  0  0  0  0  0  0
   53.9199   33.1367   21.3208 C   0  0  0  0  0  0  0  0  0  0  0  0
   54.1950   32.7827   22.6551 C   0  0  0  0  0  0  0  0  0  0  0  0
   53.3788   33.2677   23.6919 C   0  0  0  0  0  0  0  0  0  0  0  0
   52.2811   34.0929   23.3887 C   0  0  0  0  0  0  0  0  0  0  0  0
   49.3575   34.3144   23.1169 N   0  0  0  0  0  0  0  0  0  0  0  0
   48.2202   34.3886   23.8394 C   0  0  0  0  0  0  0  0  0  0  0  0
   47.9527   33.4370   24.8002 O   0  0  0  0  0  0  0  0  0  0  0  0
   47.3803   35.5051   23.6436 C   0  0  0  0  0  0  0  0  0  0  0  0
   46.1711   35.8957   24.2031 N   0  0  0  0  0  0  0  0  0  0  0  0
   46.8878   37.4312   22.7186 N   0  0  0  0  0  0  0  0  0  0  0  0
   47.8243   36.4333   22.7259 C   0  0  0  0  0  0  0  0  0  0  0  0
   48.9772   36.3771   21.9912 N   0  0  0  0  0  0  0  0  0  0  0  0
   50.9362   35.2399   21.7355 N   0  0  0  0  0  0  0  0  0  0  0  0
   51.9759   34.4305   22.0489 C   0  0  0  0  0  0  0  0  0  0  0  0
   52.8214   33.9663   21.0201 C   0  0  0  0  0  0  0  0  0  0  0  0
   45.0353   37.5898   23.7999 H   0  0  0  0  0  0  0  0  0  0  0  0
   49.8869   32.6141   24.7846 H   0  0  0  0  0  0  0  0  0  0  0  0
   48.6296   31.6849   23.9846 H   0  0  0  0  0  0  0  0  0  0  0  0
   47.6196   31.3599   26.3320 H   0  0  0  0  0  0  0  0  0  0  0  0
   48.8868   29.5954   25.1962 H   0  0  0  0  0  0  0  0  0  0  0  0
   50.4081   30.3036   25.6789 H   0  0  0  0  0  0  0  0  0  0  0  0
   48.3028   29.1534   27.5433 H   0  0  0  0  0  0  0  0  0  0  0  0
   49.8364   28.3974   27.1566 H   0  0  0  0  0  0  0  0  0  0  0  0
   49.9234   29.5544   29.3651 H   0  0  0  0  0  0  0  0  0  0  0  0
   51.0400   30.3023   28.2436 H   0  0  0  0  0  0  0  0  0  0  0  0
   48.2398   31.3156   28.9588 H   0  0  0  0  0  0  0  0  0  0  0  0
   49.7483   32.0457   29.4428 H   0  0  0  0  0  0  0  0  0  0  0  0
   50.3065   32.6025   27.1205 H   0  0  0  0  0  0  0  0  0  0  0  0
   48.7265   33.2405   27.4982 H   0  0  0  0  0  0  0  0  0  0  0  0
   54.5566   32.7798   20.5255 H   0  0  0  0  0  0  0  0  0  0  0  0
   55.0442   32.1588   22.8862 H   0  0  0  0  0  0  0  0  0  0  0  0
   51.6721   34.4602   24.1997 H   0  0  0  0  0  0  0  0  0  0  0  0
   46.9102   38.2663   22.1423 H   0  0  0  0  0  0  0  0  0  0  0  0
   51.0817   35.8298   20.9262 H   0  0  0  0  0  0  0  0  0  0  0  0
   52.6299   34.2366   19.9926 H   0  0  0  0  0  0  0  0  0  0  0  0
   53.7226   32.8595   25.3376 Cl  0  0  0  0  0  0  0  0  0  0  0  0
  1 14  1  0  0  0  0
  1 21  2  0  0  0  0
  1 22  1  0  0  0  0
  2 18  2  0  0  0  0
  2 19  1  0  0  0  0
  2 25  1  0  0  0  0
  3  4  1  0  0  0  0
  3 16  1  0  0  0  0
  3 26  1  0  0  0  0
  3 27  1  0  0  0  0
  4  5  1  0  0  0  0
  4  9  1  0  0  0  0
  4 28  1  0  0  0  0
  5  6  1  0  0  0  0
  5 29  1  0  0  0  0
  5 30  1  0  0  0  0
  6  7  1  0  0  0  0
  6 31  1  0  0  0  0
  6 32  1  0  0  0  0
  7  8  1  0  0  0  0
  7 33  1  0  0  0  0
  7 34  1  0  0  0  0
  8  9  1  0  0  0  0
  8 35  1  0  0  0  0
  8 36  1  0  0  0  0
  9 37  1  0  0  0  0
  9 38  1  0  0  0  0
 10 11  1  0  0  0  0
 10 24  2  0  0  0  0
 10 39  1  0  0  0  0
 11 12  2  0  0  0  0
 11 40  1  0  0  0  0
 12 13  1  0  0  0  0
 12 45  1  0  0  0  0
 13 23  2  0  0  0  0
 13 41  1  0  0  0  0
 14 15  2  0  0  0  0
 15 16  1  0  0  0  0
 15 17  1  0  0  0  0
 17 18  1  0  0  0  0
 17 20  2  0  0  0  0
 19 20  1  0  0  0  0
 19 42  1  0  0  0  0
 20 21  1  0  0  0  0
 22 23  1  0  0  0  0
 22 43  1  0  0  0  0
 23 24  1  0  0  0  0
 24 44  1  0  0  0  0
M  END
>  <r_user_dG.exp>
-7.669000

$$$$
21
  PyMOL2.3          3D                             0

 49 52  0  0  0  0  0  0  0  0999 V2000
   49.7062   35.2933   22.2815 C   0  0  0  0  0  0  0  0  0  0  0  0
   45.9302   37.0257   23.6071 C   0  0  0  0  0  0  0  0  0  0  0  0
   48.8379   32.3201   24.8473 C   0  0  0  0  0  0  0  0  0  0  0  0
   48.6813   31.5331   26.1493 C   0  0  0  0  0  0  0  0  0  0  0  0
   49.3717   30.1649   25.9895 C   0  0  0  0  0  0  0  0  0  0  0  0
   49.3394   29.3593   27.2905 C   0  0  0  0  0  0  0  0  0  0  0  0
   49.9805   30.1374   28.4455 C   0  0  0  0  0  0  0  0  0  0  0  0
   49.2701   31.4845   28.6409 C   0  0  0  0  0  0  0  0  0  0  0  0
   49.2789   32.3118   27.3449 C   0  0  0  0  0  0  0  0  0  0  0  0
   53.9199   33.1367   21.3208 C   0  0  0  0  0  0  0  0  0  0  0  0
   54.1950   32.7827   22.6551 C   0  0  0  0  0  0  0  0  0  0  0  0
   53.3788   33.2677   23.6919 C   0  0  0  0  0  0  0  0  0  0  0  0
   52.2811   34.0929   23.3887 C   0  0  0  0  0  0  0  0  0  0  0  0
   49.3575   34.3144   23.1169 N   0  0  0  0  0  0  0  0  0  0  0  0
   48.2202   34.3886   23.8394 C   0  0  0  0  0  0  0  0  0  0  0  0
   47.9527   33.4370   24.8002 O   0  0  0  0  0  0  0  0  0  0  0  0
   47.3803   35.5051   23.6436 C   0  0  0  0  0  0  0  0  0  0  0  0
   46.1711   35.8957   24.2031 N   0  0  0  0  0  0  0  0  0  0  0  0
   46.8878   37.4312   22.7186 N   0  0  0  0  0  0  0  0  0  0  0  0
   47.8243   36.4333   22.7259 C   0  0  0  0  0  0  0  0  0  0  0  0
   48.9772   36.3771   21.9912 N   0  0  0  0  0  0  0  0  0  0  0  0
   50.9362   35.2399   21.7355 N   0  0  0  0  0  0  0  0  0  0  0  0
   51.9759   34.4305   22.0489 C   0  0  0  0  0  0  0  0  0  0  0  0
   52.8214   33.9663   21.0201 C   0  0  0  0  0  0  0  0  0  0  0  0
   45.0353   37.5898   23.7999 H   0  0  0  0  0  0  0  0  0  0  0  0
   49.8869   32.6141   24.7846 H   0  0  0  0  0  0  0  0  0  0  0  0
   48.6296   31.6849   23.9846 H   0  0  0  0  0  0  0  0  0  0  0  0
   47.6196   31.3599   26.3320 H   0  0  0  0  0  0  0  0  0  0  0  0
   48.8868   29.5954   25.1962 H   0  0  0  0  0  0  0  0  0  0  0  0
   50.4081   30.3036   25.6789 H   0  0  0  0  0  0  0  0  0  0  0  0
   48.3028   29.1534   27.5433 H   0  0  0  0  0  0  0  0  0  0  0  0
   49.8364   28.3974   27.1566 H   0  0  0  0  0  0  0  0  0  0  0  0
   49.9234   29.5544   29.3651 H   0  0  0  0  0  0  0  0  0  0  0  0
   51.0400   30.3023   28.2436 H   0  0  0  0  0  0  0  0  0  0  0  0
   48.2398   31.3156   28.9588 H   0  0  0  0  0  0  0  0  0  0  0  0
   49.7483   32.0457   29.4428 H   0  0  0  0  0  0  0  0  0  0  0  0
   50.3065   32.6025   27.1205 H   0  0  0  0  0  0  0  0  0  0  0  0
   48.7265   33.2405   27.4982 H   0  0  0  0  0  0  0  0  0  0  0  0
   54.5566   32.7798   20.5255 H   0  0  0  0  0  0  0  0  0  0  0  0
   55.0442   32.1588   22.8862 H   0  0  0  0  0  0  0  0  0  0  0  0
   51.6721   34.4602   24.1997 H   0  0  0  0  0  0  0  0  0  0  0  0
   46.9102   38.2663   22.1423 H   0  0  0  0  0  0  0  0  0  0  0  0
   51.0817   35.8298   20.9262 H   0  0  0  0  0  0  0  0  0  0  0  0
   52.6299   34.2366   19.9926 H   0  0  0  0  0  0  0  0  0  0  0  0
   53.6499   32.9459   24.9894 O   0  0  0  0  0  0  0  0  0  0  0  0
   52.7007   33.5444   25.8432 C   0  0  0  0  0  0  0  0  0  0  0  0
   52.9312   33.2750   26.9043 H   0  0  0  0  0  0  0  0  0  0  0  0
   52.7402   34.6562   25.7237 H   0  0  0  0  0  0  0  0  0  0  0  0
   51.6773   33.1771   25.5790 H   0  0  0  0  0  0  0  0  0  0  0  0
  1 14  1  0  0  0  0
  1 21  2  0  0  0  0
  1 22  1  0  0  0  0
  2 18  2  0  0  0  0
  2 19  1  0  0  0  0
  2 25  1  0  0  0  0
  3  4  1  0  0  0  0
  3 16  1  0  0  0  0
  3 26  1  0  0  0  0
  3 27  1  0  0  0  0
  4  5  1  0  0  0  0
  4  9  1  0  0  0  0
  4 28  1  0  0  0  0
  5  6  1  0  0  0  0
  5 29  1  0  0  0  0
  5 30  1  0  0  0  0
  6  7  1  0  0  0  0
  6 31  1  0  0  0  0
  6 32  1  0  0  0  0
  7  8  1  0  0  0  0
  7 33  1  0  0  0  0
  7 34  1  0  0  0  0
  8  9  1  0  0  0  0
  8 35  1  0  0  0  0
  8 36  1  0  0  0  0
  9 37  1  0  0  0  0
  9 38  1  0  0  0  0
 10 11  1  0  0  0  0
 10 24  2  0  0  0  0
 10 39  1  0  0  0  0
 11 12  2  0  0  0  0
 11 40  1  0  0  0  0
 12 13  1  0  0  0  0
 12 45  1  0  0  0  0
 13 23  2  0  0  0  0
 13 41  1  0  0  0  0
 14 15  2  0  0  0  0
 15 16  1  0  0  0  0
 15 17  1  0  0  0  0
 17 18  1  0  0  0  0
 17 20  2  0  0  0  0
 19 20  1  0  0  0  0
 19 42  1  0  0  0  0
 20 21  1  0  0  0  0
 22 23  1  0  0  0  0
 22 43  1  0  0  0  0
 23 24  1  0  0  0  0
 24 44  1  0  0  0  0
 45 46  1  0  0  0  0
 46 47  1  0  0  0  0
 46 48  1  0  0  0  0
 46 49  1  0  0  0  0
M  END
>  <r_user_dG.exp>
-7.828000

$$$$
26
  PyMOL2.3          3D                             0

 49 52  0  0  0  0  0  0  0  0999 V2000
   49.7062   35.2933   22.2815 C   0  0  0  0  0  0  0  0  0  0  0  0
   45.9302   37.0257   23.6071 C   0  0  0  0  0  0  0  0  0  0  0  0
   48.8379   32.3201   24.8473 C   0  0  0  0  0  0  0  0  0  0  0  0
   48.6813   31.5331   26.1493 C   0  0  0  0  0  0  0  0  0  0  0  0
   49.3717   30.1649   25.9895 C   0  0  0  0  0  0  0  0  0  0  0  0
   49.3394   29.3593   27.2905 C   0  0  0  0  0  0  0  0  0  0  0  0
   49.9805   30.1374   28.4455 C   0  0  0  0  0  0  0  0  0  0  0  0
   49.2701   31.4845   28.6409 C   0  0  0  0  0  0  0  0  0  0  0  0
   49.2789   32.3118   27.3449 C   0  0  0  0  0  0  0  0  0  0  0  0
   53.9199   33.1367   21.3208 C   0  0  0  0  0  0  0  0  0  0  0  0
   54.1950   32.7827   22.6551 C   0  0  0  0  0  0  0  0  0  0  0  0
   53.3788   33.2677   23.6919 C   0  0  0  0  0  0  0  0  0  0  0  0
   52.2811   34.0929   23.3887 C   0  0  0  0  0  0  0  0  0  0  0  0
   49.3575   34.3144   23.1169 N   0  0  0  0  0  0  0  0  0  0  0  0
   48.2202   34.3886   23.8394 C   0  0  0  0  0  0  0  0  0  0  0  0
   47.9527   33.4370   24.8002 O   0  0  0  0  0  0  0  0  0  0  0  0
   47.3803   35.5051   23.6436 C   0  0  0  0  0  0  0  0  0  0  0  0
   46.1711   35.8957   24.2031 N   0  0  0  0  0  0  0  0  0  0  0  0
   46.8878   37.4312   22.7186 N   0  0  0  0  0  0  0  0  0  0  0  0
   47.8243   36.4333   22.7259 C   0  0  0  0  0  0  0  0  0  0  0  0
   48.9772   36.3771   21.9912 N   0  0  0  0  0  0  0  0  0  0  0  0
   50.9362   35.2399   21.7355 N   0  0  0  0  0  0  0  0  0  0  0  0
   51.9759   34.4305   22.0489 C   0  0  0  0  0  0  0  0  0  0  0  0
   52.8214   33.9663   21.0201 C   0  0  0  0  0  0  0  0  0  0  0  0
   45.0353   37.5898   23.7999 H   0  0  0  0  0  0  0  0  0  0  0  0
   49.8869   32.6141   24.7846 H   0  0  0  0  0  0  0  0  0  0  0  0
   48.6296   31.6849   23.9846 H   0  0  0  0  0  0  0  0  0  0  0  0
   47.6196   31.3599   26.3320 H   0  0  0  0  0  0  0  0  0  0  0  0
   48.8868   29.5954   25.1962 H   0  0  0  0  0  0  0  0  0  0  0  0
   50.4081   30.3036   25.6789 H   0  0  0  0  0  0  0  0  0  0  0  0
   48.3028   29.1534   27.5433 H   0  0  0  0  0  0  0  0  0  0  0  0
   49.8364   28.3974   27.1566 H   0  0  0  0  0  0  0  0  0  0  0  0
   49.9234   29.5544   29.3651 H   0  0  0  0  0  0  0  0  0  0  0  0
   51.0400   30.3023   28.2436 H   0  0  0  0  0  0  0  0  0  0  0  0
   48.2398   31.3156   28.9588 H   0  0  0  0  0  0  0  0  0  0  0  0
   49.7483   32.0457   29.4428 H   0  0  0  0  0  0  0  0  0  0  0  0
   50.3065   32.6025   27.1205 H   0  0  0  0  0  0  0  0  0  0  0  0
   48.7265   33.2405   27.4982 H   0  0  0  0  0  0  0  0  0  0  0  0
   54.5566   32.7798   20.5255 H   0  0  0  0  0  0  0  0  0  0  0  0
   53.5935   33.0128   24.7195 H   0  0  0  0  0  0  0  0  0  0  0  0
   51.6721   34.4602   24.1997 H   0  0  0  0  0  0  0  0  0  0  0  0
   46.9102   38.2663   22.1423 H   0  0  0  0  0  0  0  0  0  0  0  0
   51.0817   35.8298   20.9262 H   0  0  0  0  0  0  0  0  0  0  0  0
   52.6299   34.2366   19.9926 H   0  0  0  0  0  0  0  0  0  0  0  0
   55.2687   31.9939   22.9473 O   0  0  0  0  0  0  0  0  0  0  0  0
   55.3418   31.7747   24.3382 C   0  0  0  0  0  0  0  0  0  0  0  0
   56.2250   31.1273   24.5679 H   0  0  0  0  0  0  0  0  0  0  0  0
   55.4514   32.7556   24.8652 H   0  0  0  0  0  0  0  0  0  0  0  0
   54.4070   31.2672   24.6854 H   0  0  0  0  0  0  0  0  0  0  0  0
  1 14  1  0  0  0  0
  1 21  2  0  0  0  0
  1 22  1  0  0  0  0
  2 18  2  0  0  0  0
  2 19  1  0  0  0  0
  2 25  1  0  0  0  0
  3  4  1  0  0  0  0
  3 16  1  0  0  0  0
  3 26  1  0  0  0  0
  3 27  1  0  0  0  0
  4  5  1  0  0  0  0
  4  9  1  0  0  0  0
  4 28  1  0  0  0  0
  5  6  1  0  0  0  0
  5 29  1  0  0  0  0
  5 30  1  0  0  0  0
  6  7  1  0  0  0  0
  6 31  1  0  0  0  0
  6 32  1  0  0  0  0
  7  8  1  0  0  0  0
  7 33  1  0  0  0  0
  7 34  1  0  0  0  0
  8  9  1  0  0  0  0
  8 35  1  0  0  0  0
  8 36  1  0  0  0  0
  9 37  1  0  0  0  0
  9 38  1  0  0  0  0
 10 11  1  0  0  0  0
 10 24  2  0  0  0  0
 10 39  1  0  0  0  0
 11 12  2  0  0  0  0
 11 45  1  0  0  0  0
 12 13  1  0  0  0  0
 12 40  1  0  0  0  0
 13 23  2  0  0  0  0
 13 41  1  0  0  0  0
 14 15  2  0  0  0  0
 15 16  1  0  0  0  0
 15 17  1  0  0  0  0
 17 18  1  0  0  0  0
 17 20  2  0  0  0  0
 19 20  1  0  0  0  0
 19 42  1  0  0  0  0
 20 21  1  0  0  0  0
 22 23  1  0  0  0  0
 22 43  1  0  0  0  0
 23 24  1  0  0  0  0
 24 44  1  0  0  0  0
 45 46  1  0  0  0  0
 46 47  1  0  0  0  0
 46 48  1  0  0  0  0
 46 49  1  0  0  0  0
M  END
>  <r_user_dG.exp>
-8.431000

$$$$
1h1s
  PyMOL2.3          3D                             0

 50 53  0  0  0  0  0  0  0  0999 V2000
   49.7062   35.2933   22.2815 C   0  0  0  0  0  0  0  0  0  0  0  0
   45.9302   37.0257   23.6071 C   0  0  0  0  0  0  0  0  0  0  0  0
   48.8379   32.3201   24.8473 C   0  0  0  0  0  0  0  0  0  0  0  0
   48.6813   31.5331   26.1493 C   0  0  0  0  0  0  0  0  0  0  0  0
   49.3717   30.1649   25.9895 C   0  0  0  0  0  0  0  0  0  0  0  0
   49.3394   29.3593   27.2905 C   0  0  0  0  0  0  0  0  0  0  0  0
   49.9805   30.1374   28.4455 C   0  0  0  0  0  0  0  0  0  0  0  0
   49.2701   31.4845   28.6409 C   0  0  0  0  0  0  0  0  0  0  0  0
   49.2789   32.3118   27.3449 C   0  0  0  0  0  0  0  0  0  0  0  0
   53.9199   33.1367   21.3208 C   0  0  0  0  0  0  0  0  0  0  0  0
   54.1950   32.7827   22.6551 C   0  0  0  0  0  0  0  0  0  0  0  0
   53.3788   33.2677   23.6919 C   0  0  0  0  0  0  0  0  0  0  0  0
   52.2811   34.0929   23.3887 C   0  0  0  0  0  0  0  0  0  0  0  0
   49.3575   34.3144   23.1169 N   0  0  0  0  0  0  0  0  0  0  0  0
   48.2202   34.3886   23.8394 C   0  0  0  0  0  0  0  0  0  0  0  0
   47.9527   33.4370   24.8002 O   0  0  0  0  0  0  0  0  0  0  0  0
   47.3803   35.5051   23.6436 C   0  0  0  0  0  0  0  0  0  0  0  0
   46.1711   35.8957   24.2031 N   0  0  0  0  0  0  0  0  0  0  0  0
   46.8878   37.4312   22.7186 N   0  0  0  0  0  0  0  0  0  0  0  0
   47.8243   36.4333   22.7259 C   0  0  0  0  0  0  0  0  0  0  0  0
   48.9772   36.3771   21.9912 N   0  0  0  0  0  0  0  0  0  0  0  0
   50.9362   35.2399   21.7355 N   0  0  0  0  0  0  0  0  0  0  0  0
   51.9759   34.4305   22.0489 C   0  0  0  0  0  0  0  0  0  0  0  0
   52.8214   33.9663   21.0201 C   0  0  0  0  0  0  0  0  0  0  0  0
   45.0353   37.5898   23.7999 H   0  0  0  0  0  0  0  0  0  0  0  0
   49.8869   32.6141   24.7846 H   0  0  0  0  0  0  0  0  0  0  0  0
   48.6296   31.6849   23.9846 H   0  0  0  0  0  0  0  0  0  0  0  0
   47.6196   31.3599   26.3320 H   0  0  0  0  0  0  0  0  0  0  0  0
   48.8868   29.5954   25.1962 H   0  0  0  0  0  0  0  0  0  0  0  0
   50.4081   30.3036   25.6789 H   0  0  0  0  0  0  0  0  0  0  0  0
   48.3028   29.1534   27.5433 H   0  0  0  0  0  0  0  0  0  0  0  0
   49.8364   28.3974   27.1566 H   0  0  0  0  0  0  0  0  0  0  0  0
   49.9234   29.5544   29.3651 H   0  0  0  0  0  0  0  0  0  0  0  0
   51.0400   30.3023   28.2436 H   0  0  0  0  0  0  0  0  0  0  0  0
   48.2398   31.3156   28.9588 H   0  0  0  0  0  0  0  0  0  0  0  0
   49.7483   32.0457   29.4428 H   0  0  0  0  0  0  0  0  0  0  0  0
   50.3065   32.6025   27.1205 H   0  0  0  0  0  0  0  0  0  0  0  0
   48.7265   33.2405   27.4982 H   0  0  0  0  0  0  0  0  0  0  0  0
   54.5566   32.7798   20.5255 H   0  0  0  0  0  0  0  0  0  0  0  0
   53.5935   33.0128   24.7195 H   0  0  0  0  0  0  0  0  0  0  0  0
   51.6721   34.4602   24.1997 H   0  0  0  0  0  0  0  0  0  0  0  0
   46.9102   38.2663   22.1423 H   0  0  0  0  0  0  0  0  0  0  0  0
   51.0817   35.8298   20.9262 H   0  0  0  0  0  0  0  0  0  0  0  0
   52.6299   34.2366   19.9926 H   0  0  0  0  0  0  0  0  0  0  0  0
   55.3757   31.9153   22.9764 S   0  0  0  0  0  0  0  0  0  0  0  0
   55.8451   31.3170   21.7325 O   0  0  0  0  0  0  0  0  0  0  0  0
   56.2703   32.6766   23.8401 O   0  0  0  0  0  0  0  0  0  0  0  0
   54.8264   30.5951   23.9390 N   0  0  0  0  0  0  0  0  0  0  0  0
   54.4733   29.7694   23.4767 H   0  0  0  0  0  0  0  0  0  0  0  0
   54.7687   30.7137   24.9403 H   0  0  0  0  0  0  0  0  0  0  0  0
  1 14  1  0  0  0  0
  1 21  2  0  0  0  0
  1 22  1  0  0  0  0
  2 18  2  0  0  0  0
  2 19  1  0  0  0  0
  2 25  1  0  0  0  0
  3  4  1  0  0  0  0
  3 16  1  0  0  0  0
  3 26  1  0  0  0  0
  3 27  1  0  0  0  0
  4  5  1  0  0  0  0
  4  9  1  0  0  0  0
  4 28  1  0  0  0  0
  5  6  1  0  0  0  0
  5 29  1  0  0  0  0
  5 30  1  0  0  0  0
  6  7  1  0  0  0  0
  6 31  1  0  0  0  0
  6 32  1  0  0  0  0
  7  8  1  0  0  0  0
  7 33  1  0  0  0  0
  7 34  1  0  0  0  0
  8  9  1  0  0  0  0
  8 35  1  0  0  0  0
  8 36  1  0  0  0  0
  9 37  1  0  0  0  0
  9 38  1  0  0  0  0
 10 11  1  0  0  0  0
 10 24  2  0  0  0  0
 10 39  1  0  0  0  0
 11 12  2  0  0  0  0
 11 45  1  0  0  0  0
 12 13  1  0  0  0  0
 12 40  1  0  0  0  0
 13 23  2  0  0  0  0
 13 41  1  0  0  0  0
 14 15  2  0  0  0  0
 15 16  1  0  0  0  0
 15 17  1  0  0  0  0
 17 18  1  0  0  0  0
 17 20  2  0  0  0  0
 19 20  1  0  0  0  0
 19 42  1  0  0  0  0
 20 21  1  0  0  0  0
 22 23  1  0  0  0  0
 22 43  1  0  0  0  0
 23 24  1  0  0  0  0
 24 44  1  0  0  0  0
 45 46  2  0  0  0  0
 45 47  2  0  0  0  0
 45 48  1  0  0  0  0
 48 49  1  0  0  0  0
 48 50  1  0  0  0  0
M  END
>  <r_user_dG.exp>
-11.246000

$$$$
31
  PyMOL2.3          3D                             0

 50 53  0  0  1  0  0  0  0  0999 V2000
   49.7062   35.2933   22.2815 C   0  0  0  0  0  0  0  0  0  0  0  0
   45.9302   37.0257   23.6071 C   0  0  0  0  0  0  0  0  0  0  0  0
   48.8379   32.3201   24.8473 C   0  0  0  0  0  0  0  0  0  0  0  0
   48.6813   31.5331   26.1493 C   0  0  0  0  0  0  0  0  0  0  0  0
   49.3717   30.1649   25.9895 C   0  0  0  0  0  0  0  0  0  0  0  0
   49.3394   29.3593   27.2905 C   0  0  0  0  0  0  0  0  0  0  0  0
   49.9805   30.1374   28.4455 C   0  0  0  0  0  0  0  0  0  0  0  0
   49.2701   31.4845   28.6409 C   0  0  0  0  0  0  0  0  0  0  0  0
   49.2789   32.3118   27.3449 C   0  0  0  0  0  0  0  0  0  0  0  0
   53.9199   33.1367   21.3208 C   0  0  0  0  0  0  0  0  0  0  0  0
   54.1950   32.7827   22.6551 C   0  0  0  0  0  0  0  0  0  0  0  0
   53.3788   33.2677   23.6919 C   0  0  0  0  0  0  0  0  0  0  0  0
   52.2811   34.0929   23.3887 C   0  0  0  0  0  0  0  0  0  0  0  0
   49.3575   34.3144   23.1169 N   0  0  0  0  0  0  0  0  0  0  0  0
   48.2202   34.3886   23.8394 C   0  0  0  0  0  0  0  0  0  0  0  0
   47.9527   33.4370   24.8002 O   0  0  0  0  0  0  0  0  0  0  0  0
   47.3803   35.5051   23.6436 C   0  0  0  0  0  0  0  0  0  0  0  0
   46.1711   35.8957   24.2031 N   0  0  0  0  0  0  0  0  0  0  0  0
   46.8878   37.4312   22.7186 N   0  0  0  0  0  0  0  0  0  0  0  0
   47.8243   36.4333   22.7259 C   0  0  0  0  0  0  0  0  0  0  0  0
   48.9772   36.3771   21.9912 N   0  0  0  0  0  0  0  0  0  0  0  0
   50.9362   35.2399   21.7355 N   0  0  0  0  0  0  0  0  0  0  0  0
   51.9759   34.4305   22.0489 C   0  0  0  0  0  0  0  0  0  0  0  0
   52.8214   33.9663   21.0201 C   0  0  0  0  0  0  0  0  0  0  0  0
   45.0353   37.5898   23.7999 H   0  0  0  0  0  0  0  0  0  0  0  0
   49.8869   32.6141   24.7846 H   0  0  0  0  0  0  0  0  0  0  0  0
   48.6296   31.6849   23.9846 H   0  0  0  0  0  0  0  0  0  0  0  0
   47.6196   31.3599   26.3320 H   0  0  0  0  0  0  0  0  0  0  0  0
   48.8868   29.5954   25.1962 H   0  0  0  0  0  0  0  0  0  0  0  0
   50.4081   30.3036   25.6789 H   0  0  0  0  0  0  0  0  0  0  0  0
   48.3028   29.1534   27.5433 H   0  0  0  0  0  0  0  0  0  0  0  0
   49.8364   28.3974   27.1566 H   0  0  0  0  0  0  0  0  0  0  0  0
   49.9234   29.5544   29.3651 H   0  0  0  0  0  0  0  0  0  0  0  0
   51.0400   30.3023   28.2436 H   0  0  0  0  0  0  0  0  0  0  0  0
   48.2398   31.3156   28.9588 H   0  0  0  0  0  0  0  0  0  0  0  0
   49.7483   32.0457   29.4428 H   0  0  0  0  0  0  0  0  0  0  0  0
   50.3065   32.6025   27.1205 H   0  0  0  0  0  0  0  0  0  0  0  0
   48.7265   33.2405   27.4982 H   0  0  0  0  0  0  0  0  0  0  0  0
   54.5566   32.7798   20.5255 H   0  0  0  0  0  0  0  0  0  0  0  0
   53.5935   33.0128   24.7195 H   0  0  0  0  0  0  0  0  0  0  0  0
   51.6721   34.4602   24.1997 H   0  0  0  0  0  0  0  0  0  0  0  0
   46.9102   38.2663   22.1423 H   0  0  0  0  0  0  0  0  0  0  0  0
   51.0817   35.8298   20.9262 H   0  0  0  0  0  0  0  0  0  0  0  0
   52.6299   34.2366   19.9926 H   0  0  0  0  0  0  0  0  0  0  0  0
   55.3757   31.9153   22.9764 S   0  0  3  0  0  0  0  0  0  0  0  0
   56.1533   31.4842   22.0281 O   0  0  0  0  0  0  0  0  0  0  0  0
   55.6478   31.5517   24.4060 C   0  0  0  0  0  0  0  0  0  0  0  0
   54.8714   32.0172   25.0636 H   0  0  0  0  0  0  0  0  0  0  0  0
   55.6154   30.4392   24.5207 H   0  0  0  0  0  0  0  0  0  0  0  0
   56.6598   31.9276   24.7004 H   0  0  0  0  0  0  0  0  0  0  0  0
  1 14  1  0  0  0  0
  1 21  2  0  0  0  0
  1 22  1  0  0  0  0
  2 18  2  0  0  0  0
  2 19  1  0  0  0  0
  2 25  1  0  0  0  0
  3  4  1  0  0  0  0
  3 16  1  0  0  0  0
  3 26  1  0  0  0  0
  3 27  1  0  0  0  0
  4  5  1  0  0  0  0
  4  9  1  0  0  0  0
  4 28  1  0  0  0  0
  5  6  1  0  0  0  0
  5 29  1  0  0  0  0
  5 30  1  0  0  0  0
  6  7  1  0  0  0  0
  6 31  1  0  0  0  0
  6 32  1  0  0  0  0
  7  8  1  0  0  0  0
  7 33  1  0  0  0  0
  7 34  1  0  0  0  0
  8  9  1  0  0  0  0
  8 35  1  0  0  0  0
  8 36  1  0  0  0  0
  9 37  1  0  0  0  0
  9 38  1  0  0  0  0
 10 11  1  0  0  0  0
 10 24  2  0  0  0  0
 10 39  1  0  0  0  0
 11 12  2  0  0  0  0
 11 45  1  0  0  0  0
 12 13  1  0  0  0  0
 12 40  1  0  0  0  0
 13 23  2  0  0  0  0
 13 41  1  0  0  0  0
 14 15  2  0  0  0  0
 15 16  1  0  0  0  0
 15 17  1  0  0  0  0
 17 18  1  0  0  0  0
 17 20  2  0  0  0  0
 19 20  1  0  0  0  0
 19 42  1  0  0  0  0
 20 21  1  0  0  0  0
 22 23  1  0  0  0  0
 22 43  1  0  0  0  0
 23 24  1  0  0  0  0
 24 44  1  0  0  0  0
 45 46  2  0  0  0  0
 45 47  1  0  0  0  0
 47 48  1  0  0  0  0
 47 49  1  0  0  0  0
 47 50  1  0  0  0  0
M  END
>  <r_user_dG.exp>
-9.539000

$$$$
20
  PyMOL2.3          3D                             0

 49 52  0  0  0  0  0  0  0  0999 V2000
   49.7062   35.2933   22.2815 C   0  0  0  0  0  0  0  0  0  0  0  0
   45.9302   37.0257   23.6071 C   0  0  0  0  0  0  0  0  0  0  0  0
   48.8379   32.3201   24.8473 C   0  0  0  0  0  0  0  0  0  0  0  0
   48.6813   31.5331   26.1493 C   0  0  0  0  0  0  0  0  0  0  0  0
   49.3717   30.1649   25.9895 C   0  0  0  0  0  0  0  0  0  0  0  0
   49.3394   29.3593   27.2905 C   0  0  0  0  0  0  0  0  0  0  0  0
   49.9805   30.1374   28.4455 C   0  0  0  0  0  0  0  0  0  0  0  0
   49.2701   31.4845   28.6409 C   0  0  0  0  0  0  0  0  0  0  0  0
   49.2789   32.3118   27.3449 C   0  0  0  0  0  0  0  0  0  0  0  0
   53.9199   33.1367   21.3208 C   0  0  0  0  0  0  0  0  0  0  0  0
   54.1950   32.7827   22.6551 C   0  0  0  0  0  0  0  0  0  0  0  0
   53.3788   33.2677   23.6919 C   0  0  0  0  0  0  0  0  0  0  0  0
   52.2811   34.0929   23.3887 C   0  0  0  0  0  0  0  0  0  0  0  0
   49.3575   34.3144   23.1169 N   0  0  0  0  0  0  0  0  0  0  0  0
   48.2202   34.3886   23.8394 C   0  0  0  0  0  0  0  0  0  0  0  0
   47.9527   33.4370   24.8002 O   0  0  0  0  0  0  0  0  0  0  0  0
   47.3803   35.5051   23.6436 C   0  0  0  0  0  0  0  0  0  0  0  0
   46.1711   35.8957   24.2031 N   0  0  0  0  0  0  0  0  0  0  0  0
   46.8878   37.4312   22.7186 N   0  0  0  0  0  0  0  0  0  0  0  0
   47.8243   36.4333   22.7259 C   0  0  0  0  0  0  0  0  0  0  0  0
   48.9772   36.3771   21.9912 N   0  0  0  0  0  0  0  0  0  0  0  0
   50.9362   35.2399   21.7355 N   0  0  0  0  0  0  0  0  0  0  0  0
   51.9759   34.4305   22.0489 C   0  0  0  0  0  0  0  0  0  0  0  0
   52.8214   33.9663   21.0201 C   0  0  0  0  0  0  0  0  0  0  0  0
   45.0353   37.5898   23.7999 H   0  0  0  0  0  0  0  0  0  0  0  0
   49.8869   32.6141   24.7846 H   0  0  0  0  0  0  0  0  0  0  0  0
   48.6296   31.6849   23.9846 H   0  0  0  0  0  0  0  0  0  0  0  0
   47.6196   31.3599   26.3320 H   0  0  0  0  0  0  0  0  0  0  0  0
   48.8868   29.5954   25.1962 H   0  0  0  0  0  0  0  0  0  0  0  0
   50.4081   30.3036   25.6789 H   0  0  0  0  0  0  0  0  0  0  0  0
   48.3028   29.1534   27.5433 H   0  0  0  0  0  0  0  0  0  0  0  0
   49.8364   28.3974   27.1566 H   0  0  0  0  0  0  0  0  0  0  0  0
   49.9234   29.5544   29.3651 H   0  0  0  0  0  0  0  0  0  0  0  0
   51.0400   30.3023   28.2436 H   0  0  0  0  0  0  0  0  0  0  0  0
   48.2398   31.3156   28.9588 H   0  0  0  0  0  0  0  0  0  0  0  0
   49.7483   32.0457   29.4428 H   0  0  0  0  0  0  0  0  0  0  0  0
   50.3065   32.6025   27.1205 H   0  0  0  0  0  0  0  0  0  0  0  0
   48.7265   33.2405   27.4982 H   0  0  0  0  0  0  0  0  0  0  0  0
   55.0442   32.1588   22.8862 H   0  0  0  0  0  0  0  0  0  0  0  0
   53.5935   33.0128   24.7195 H   0  0  0  0  0  0  0  0  0  0  0  0
   51.6721   34.4602   24.1997 H   0  0  0  0  0  0  0  0  0  0  0  0
   46.9102   38.2663   22.1423 H   0  0  0  0  0  0  0  0  0  0  0  0
   51.0817   35.8298   20.9262 H   0  0  0  0  0  0  0  0  0  0  0  0
   52.6299   34.2366   19.9926 H   0  0  0  0  0  0  0  0  0  0  0  0
   54.8176   32.6334   20.1995 C   0  0  0  0  0  0  0  0  0  0  0  0
   54.4207   33.0265   19.2635 H   0  0  0  0  0  0  0  0  0  0  0  0
   55.8228   33.0067   20.3949 H   0  0  0  0  0  0  0  0  0  0  0  0
   54.7756   31.2243   20.2268 O   0  0  0  0  0  0  0  0  0  0  0  0
   55.1382   30.9636   21.0736 H   0  0  0  0  0  0  0  0  0  0  0  0
  1 14  1  0  0  0  0
  1 21  2  0  0  0  0
  1 22  1  0  0  0  0
  2 18  2  0  0  0  0
  2 19  1  0  0  0  0
  2 25  1  0  0  0  0
  3  4  1  0  0  0  0
  3 16  1  0  0  0  0
  3 26  1  0  0  0  0
  3 27  1  0  0  0  0
  4  5  1  0  0  0  0
  4  9  1  0  0  0  0
  4 28  1  0  0  0  0
  5  6  1  0  0  0  0
  5 29  1  0  0  0  0
  5 30  1  0  0  0  0
  6  7  1  0  0  0  0
  6 31  1  0  0  0  0
  6 32  1  0  0  0  0
  7  8  1  0  0  0  0
  7 33  1  0  0  0  0
  7 34  1  0  0  0  0
  8  9  1  0  0  0  0
  8 35  1  0  0  0  0
  8 36  1  0  0  0  0
  9 37  1  0  0  0  0
  9 38  1  0  0  0  0
 10 11  1  0  0  0  0
 10 24  2  0  0  0  0
 10 45  1  0  0  0  0
 11 12  2  0  0  0  0
 11 39  1  0  0  0  0
 12 13  1  0  0  0  0
 12 40  1  0  0  0  0
 13 23  2  0  0  0  0
 13 41  1  0  0  0  0
 14 15  2  0  0  0  0
 15 16  1  0  0  0  0
 15 17  1  0  0  0  0
 17 18  1  0  0  0  0
 17 20  2  0  0  0  0
 19 20  1  0  0  0  0
 19 42  1  0  0  0  0
 20 21  1  0  0  0  0
 22 23  1  0  0  0  0
 22 43  1  0  0  0  0
 23 24  1  0  0  0  0
 24 44  1  0  0  0  0
 45 46  1  0  0  0  0
 45 47  1  0  0  0  0
 45 48  1  0  0  0  0
 48 49  1  0  0  0  0
M  END
>  <r_user_dG.exp>
-8.718000

$$$$
22
  PyMOL2.3          3D                             0

 49 52  0  0  0  0  0  0  0  0999 V2000
   49.7062   35.2933   22.2815 C   0  0  0  0  0  0  0  0  0  0  0  0
   45.9302   37.0257   23.6071 C   0  0  0  0  0  0  0  0  0  0  0  0
   48.8379   32.3201   24.8473 C   0  0  0  0  0  0  0  0  0  0  0  0
   48.6813   31.5331   26.1493 C   0  0  0  0  0  0  0  0  0  0  0  0
   49.3717   30.1649   25.9895 C   0  0  0  0  0  0  0  0  0  0  0  0
   49.3394   29.3593   27.2905 C   0  0  0  0  0  0  0  0  0  0  0  0
   49.9805   30.1374   28.4455 C   0  0  0  0  0  0  0  0  0  0  0  0
   49.2701   31.4845   28.6409 C   0  0  0  0  0  0  0  0  0  0  0  0
   49.2789   32.3118   27.3449 C   0  0  0  0  0  0  0  0  0  0  0  0
   53.9199   33.1367   21.3208 C   0  0  0  0  0  0  0  0  0  0  0  0
   54.1950   32.7827   22.6551 C   0  0  0  0  0  0  0  0  0  0  0  0
   53.3788   33.2677   23.6919 C   0  0  0  0  0  0  0  0  0  0  0  0
   52.2811   34.0929   23.3887 C   0  0  0  0  0  0  0  0  0  0  0  0
   49.3575   34.3144   23.1169 N   0  0  0  0  0  0  0  0  0  0  0  0
   48.2202   34.3886   23.8394 C   0  0  0  0  0  0  0  0  0  0  0  0
   47.9527   33.4370   24.8002 O   0  0  0  0  0  0  0  0  0  0  0  0
   47.3803   35.5051   23.6436 C   0  0  0  0  0  0  0  0  0  0  0  0
   46.1711   35.8957   24.2031 N   0  0  0  0  0  0  0  0  0  0  0  0
   46.8878   37.4312   22.7186 N   0  0  0  0  0  0  0  0  0  0  0  0
   47.8243   36.4333   22.7259 C   0  0  0  0  0  0  0  0  0  0  0  0
   48.9772   36.3771   21.9912 N   0  0  0  0  0  0  0  0  0  0  0  0
   50.9362   35.2399   21.7355 N   0  0  0  0  0  0  0  0  0  0  0  0
   51.9759   34.4305   22.0489 C   0  0  0  0  0  0  0  0  0  0  0  0
   52.8214   33.9663   21.0201 C   0  0  0  0  0  0  0  0  0  0  0  0
   45.0353   37.5898   23.7999 H   0  0  0  0  0  0  0  0  0  0  0  0
   49.8869   32.6141   24.7846 H   0  0  0  0  0  0  0  0  0  0  0  0
   48.6296   31.6849   23.9846 H   0  0  0  0  0  0  0  0  0  0  0  0
   47.6196   31.3599   26.3320 H   0  0  0  0  0  0  0  0  0  0  0  0
   48.8868   29.5954   25.1962 H   0  0  0  0  0  0  0  0  0  0  0  0
   50.4081   30.3036   25.6789 H   0  0  0  0  0  0  0  0  0  0  0  0
   48.3028   29.1534   27.5433 H   0  0  0  0  0  0  0  0  0  0  0  0
   49.8364   28.3974   27.1566 H   0  0  0  0  0  0  0  0  0  0  0  0
   49.9234   29.5544   29.3651 H   0  0  0  0  0  0  0  0  0  0  0  0
   51.0400   30.3023   28.2436 H   0  0  0  0  0  0  0  0  0  0  0  0
   48.2398   31.3156   28.9588 H   0  0  0  0  0  0  0  0  0  0  0  0
   49.7483   32.0457   29.4428 H   0  0  0  0  0  0  0  0  0  0  0  0
   50.3065   32.6025   27.1205 H   0  0  0  0  0  0  0  0  0  0  0  0
   48.7265   33.2405   27.4982 H   0  0  0  0  0  0  0  0  0  0  0  0
   54.5566   32.7798   20.5255 H   0  0  0  0  0  0  0  0  0  0  0  0
   55.0442   32.1588   22.8862 H   0  0  0  0  0  0  0  0  0  0  0  0
   51.6721   34.4602   24.1997 H   0  0  0  0  0  0  0  0  0  0  0  0
   46.9102   38.2663   22.1423 H   0  0  0  0  0  0  0  0  0  0  0  0
   51.0817   35.8298   20.9262 H   0  0  0  0  0  0  0  0  0  0  0  0
   52.6299   34.2366   19.9926 H   0  0  0  0  0  0  0  0  0  0  0  0
   53.7206   32.8620   25.3281 S   0  0  0  0  0  0  0  0  0  0  0  0
   52.5021   33.6303   26.4240 C   0  0  0  0  0  0  0  0  0  0  0  0
   52.7327   33.3608   27.4852 H   0  0  0  0  0  0  0  0  0  0  0  0
   52.5417   34.7420   26.3045 H   0  0  0  0  0  0  0  0  0  0  0  0
   51.4789   33.2629   26.1597 H   0  0  0  0  0  0  0  0  0  0  0  0
  1 14  1  0  0  0  0
  1 21  2  0  0  0  0
  1 22  1  0  0  0  0
  2 18  2  0  0  0  0
  2 19  1  0  0  0  0
  2 25  1  0  0  0  0
  3  4  1  0  0  0  0
  3 16  1  0  0  0  0
  3 26  1  0  0  0  0
  3 27  1  0  0  0  0
  4  5  1  0  0  0  0
  4  9  1  0  0  0  0
  4 28  1  0  0  0  0
  5  6  1  0  0  0  0
  5 29  1  0  0  0  0
  5 30  1  0  0  0  0
  6  7  1  0  0  0  0
  6 31  1  0  0  0  0
  6 32  1  0  0  0  0
  7  8  1  0  0  0  0
  7 33  1  0  0  0  0
  7 34  1  0  0  0  0
  8  9  1  0  0  0  0
  8 35  1  0  0  0  0
  8 36  1  0  0  0  0
  9 37  1  0  0  0  0
  9 38  1  0  0  0  0
 10 11  1  0  0  0  0
 10 24  2  0  0  0  0
 10 39  1  0  0  0  0
 11 12  2  0  0  0  0
 11 40  1  0  0  0  0
 12 13  1  0  0  0  0
 12 45  1  0  0  0  0
 13 23  2  0  0  0  0
 13 41  1  0  0  0  0
 14 15  2  0  0  0  0
 15 16  1  0  0  0  0
 15 17  1  0  0  0  0
 17 18  1  0  0  0  0
 17 20  2  0  0  0  0
 19 20  1  0  0  0  0
 19 42  1  0  0  0  0
 20 21  1  0  0  0  0
 22 23  1  0  0  0  0
 22 43  1  0  0  0  0
 23 24  1  0  0  0  0
 24 44  1  0  0  0  0
 45 46  1  0  0  0  0
 46 47  1  0  0  0  0
 46 48  1  0  0  0  0
 46 49  1  0  0  0  0
M  END
>  <r_user_dG.exp>
-7.862000

$$$$
17
  PyMOL2.3          3D                             0

 45 48  0  0  0  0  0  0  0  0999 V2000
   49.7062   35.2933   22.2815 C   0  0  0  0  0  0  0  0  0  0  0  0
   45.9302   37.0257   23.6071 C   0  0  0  0  0  0  0  0  0  0  0  0
   48.8379   32.3201   24.8473 C   0  0  0  0  0  0  0  0  0  0  0  0
   48.6813   31.5331   26.1493 C   0  0  0  0  0  0  0  0  0  0  0  0
   49.3717   30.1649   25.9895 C   0  0  0  0  0  0  0  0  0  0  0  0
   49.3394   29.3593   27.2905 C   0  0  0  0  0  0  0  0  0  0  0  0
   49.9805   30.1374   28.4455 C   0  0  0  0  0  0  0  0  0  0  0  0
   49.2701   31.4845   28.6409 C   0  0  0  0  0  0  0  0  0  0  0  0
   49.2789   32.3118   27.3449 C   0  0  0  0  0  0  0  0  0  0  0  0
   53.9199   33.1367   21.3208 C   0  0  0  0  0  0  0  0  0  0  0  0
   54.1950   32.7827   22.6551 C   0  0  0  0  0  0  0  0  0  0  0  0
   53.3788   33.2677   23.6919 C   0  0  0  0  0  0  0  0  0  0  0  0
   52.2811   34.0929   23.3887 C   0  0  0  0  0  0  0  0  0  0  0  0
   49.3575   34.3144   23.1169 N   0  0  0  0  0  0  0  0  0  0  0  0
   48.2202   34.3886   23.8394 C   0  0  0  0  0  0  0  0  0  0  0  0
   47.9527   33.4370   24.8002 O   0  0  0  0  0  0  0  0  0  0  0  0
   47.3803   35.5051   23.6436 C   0  0  0  0  0  0  0  0  0  0  0  0
   46.1711   35.8957   24.2031 N   0  0  0  0  0  0  0  0  0  0  0  0
   46.8878   37.4312   22.7186 N   0  0  0  0  0  0  0  0  0  0  0  0
   47.8243   36.4333   22.7259 C   0  0  0  0  0  0  0  0  0  0  0  0
   48.9772   36.3771   21.9912 N   0  0  0  0  0  0  0  0  0  0  0  0
   50.9362   35.2399   21.7355 N   0  0  0  0  0  0  0  0  0  0  0  0
   51.9759   34.4305   22.0489 C   0  0  0  0  0  0  0  0  0  0  0  0
   52.8214   33.9663   21.0201 C   0  0  0  0  0  0  0  0  0  0  0  0
   45.0353   37.5898   23.7999 H   0  0  0  0  0  0  0  0  0  0  0  0
   49.8869   32.6141   24.7846 H   0  0  0  0  0  0  0  0  0  0  0  0
   48.6296   31.6849   23.9846 H   0  0  0  0  0  0  0  0  0  0  0  0
   47.6196   31.3599   26.3320 H   0  0  0  0  0  0  0  0  0  0  0  0
   48.8868   29.5954   25.1962 H   0  0  0  0  0  0  0  0  0  0  0  0
   50.4081   30.3036   25.6789 H   0  0  0  0  0  0  0  0  0  0  0  0
   48.3028   29.1534   27.5433 H   0  0  0  0  0  0  0  0  0  0  0  0
   49.8364   28.3974   27.1566 H   0  0  0  0  0  0  0  0  0  0  0  0
   49.9234   29.5544   29.3651 H   0  0  0  0  0  0  0  0  0  0  0  0
   51.0400   30.3023   28.2436 H   0  0  0  0  0  0  0  0  0  0  0  0
   48.2398   31.3156   28.9588 H   0  0  0  0  0  0  0  0  0  0  0  0
   49.7483   32.0457   29.4428 H   0  0  0  0  0  0  0  0  0  0  0  0
   50.3065   32.6025   27.1205 H   0  0  0  0  0  0  0  0  0  0  0  0
   48.7265   33.2405   27.4982 H   0  0  0  0  0  0  0  0  0  0  0  0
   54.5566   32.7798   20.5255 H   0  0  0  0  0  0  0  0  0  0  0  0
   55.0442   32.1588   22.8862 H   0  0  0  0  0  0  0  0  0  0  0  0
   51.6721   34.4602   24.1997 H   0  0  0  0  0  0  0  0  0  0  0  0
   46.9102   38.2663   22.1423 H   0  0  0  0  0  0  0  0  0  0  0  0
   51.0817   35.8298   20.9262 H   0  0  0  0  0  0  0  0  0  0  0  0
   52.6299   34.2366   19.9926 H   0  0  0  0  0  0  0  0  0  0  0  0
   53.7544   32.8218   25.4898 Br  0  0  0  0  0  0  0  0  0  0  0  0
  1 14  1  0  0  0  0
  1 21  2  0  0  0  0
  1 22  1  0  0  0  0
  2 18  2  0  0  0  0
  2 19  1  0  0  0  0
  2 25  1  0  0  0  0
  3  4  1  0  0  0  0
  3 16  1  0  0  0  0
  3 26  1  0  0  0  0
  3 27  1  0  0  0  0
  4  5  1  0  0  0  0
  4  9  1  0  0  0  0
  4 28  1  0  0  0  0
  5  6  1  0  0  0  0
  5 29  1  0  0  0  0
  5 30  1  0  0  0  0
  6  7  1  0  0  0  0
  6 31  1  0  0  0  0
  6 32  1  0  0  0  0
  7  8  1  0  0  0  0
  7 33  1  0  0  0  0
  7 34  1  0  0  0  0
  8  9  1  0  0  0  0
  8 35  1  0  0  0  0
  8 36  1  0  0  0  0
  9 37  1  0  0  0  0
  9 38  1  0  0  0  0
 10 11  1  0  0  0  0
 10 24  2  0  0  0  0
 10 39  1  0  0  0  0
 11 12  2  0  0  0  0
 11 40  1  0  0  0  0
 12 13  1  0  0  0  0
 12 45  1  0  0  0  0
 13 23  2  0  0  0  0
 13 41  1  0  0  0  0
 14 15  2  0  0  0  0
 15 16  1  0  0  0  0
 15 17  1  0  0  0  0
 17 18  1  0  0  0  0
 17 20  2  0  0  0  0
 19 20  1  0  0  0  0
 19 42  1  0  0  0  0
 20 21  1  0  0  0  0
 22 23  1  0  0  0  0
 22 43  1  0  0  0  0
 23 24  1  0  0  0  0
 24 44  1  0  0  0  0
M  END
>  <r_user_dG.exp>
-7.041000

$$$$
1h1q
  PyMOL2.3          3D                             0

 45 48  0  0  0  0  0  0  0  0999 V2000
   49.7062   35.2933   22.2815 C   0  0  0  0  0  0  0  0  0  0  0  0
   45.9302   37.0257   23.6071 C   0  0  0  0  0  0  0  0  0  0  0  0
   48.8379   32.3201   24.8473 C   0  0  0  0  0  0  0  0  0  0  0  0
   48.6813   31.5331   26.1493 C   0  0  0  0  0  0  0  0  0  0  0  0
   49.3717   30.1649   25.9895 C   0  0  0  0  0  0  0  0  0  0  0  0
   49.3394   29.3593   27.2905 C   0  0  0  0  0  0  0  0  0  0  0  0
   49.9805   30.1374   28.4455 C   0  0  0  0  0  0  0  0  0  0  0  0
   49.2701   31.4845   28.6409 C   0  0  0  0  0  0  0  0  0  0  0  0
   49.2789   32.3118   27.3449 C   0  0  0  0  0  0  0  0  0  0  0  0
   53.9199   33.1367   21.3208 C   0  0  0  0  0  0  0  0  0  0  0  0
   54.1950   32.7827   22.6551 C   0  0  0  0  0  0  0  0  0  0  0  0
   53.3788   33.2677   23.6919 C   0  0  0  0  0  0  0  0  0  0  0  0
   52.2811   34.0929   23.3887 C   0  0  0  0  0  0  0  0  0  0  0  0
   49.3575   34.3144   23.1169 N   0  0  0  0  0  0  0  0  0  0  0  0
   48.2202   34.3886   23.8394 C   0  0  0  0  0  0  0  0  0  0  0  0
   47.9527   33.4370   24.8002 O   0  0  0  0  0  0  0  0  0  0  0  0
   47.3803   35.5051   23.6436 C   0  0  0  0  0  0  0  0  0  0  0  0
   46.1711   35.8957   24.2031 N   0  0  0  0  0  0  0  0  0  0  0  0
   46.8878   37.4312   22.7186 N   0  0  0  0  0  0  0  0  0  0  0  0
   47.8243   36.4333   22.7259 C   0  0  0  0  0  0  0  0  0  0  0  0
   48.9772   36.3771   21.9912 N   0  0  0  0  0  0  0  0  0  0  0  0
   50.9362   35.2399   21.7355 N   0  0  0  0  0  0  0  0  0  0  0  0
   51.9759   34.4305   22.0489 C   0  0  0  0  0  0  0  0  0  0  0  0
   52.8214   33.9663   21.0201 C   0  0  0  0  0  0  0  0  0  0  0  0
   45.0353   37.5898   23.7999 H   0  0  0  0  0  0  0  0  0  0  0  0
   49.8869   32.6141   24.7846 H   0  0  0  0  0  0  0  0  0  0  0  0
   48.6296   31.6849   23.9846 H   0  0  0  0  0  0  0  0  0  0  0  0
   47.6196   31.3599   26.3320 H   0  0  0  0  0  0  0  0  0  0  0  0
   48.8868   29.5954   25.1962 H   0  0  0  0  0  0  0  0  0  0  0  0
   50.4081   30.3036   25.6789 H   0  0  0  0  0  0  0  0  0  0  0  0
   48.3028   29.1534   27.5433 H   0  0  0  0  0  0  0  0  0  0  0  0
   49.8364   28.3974   27.1566 H   0  0  0  0  0  0  0  0  0  0  0  0
   49.9234   29.5544   29.3651 H   0  0  0  0  0  0  0  0  0  0  0  0
   51.0400   30.3023   28.2436 H   0  0  0  0  0  0  0  0  0  0  0  0
   48.2398   31.3156   28.9588 H   0  0  0  0  0  0  0  0  0  0  0  0
   49.7483   32.0457   29.4428 H   0  0  0  0  0  0  0  0  0  0  0  0
   50.3065   32.6025   27.1205 H   0  0  0  0  0  0  0  0  0  0  0  0
   48.7265   33.2405   27.4982 H   0  0  0  0  0  0  0  0  0  0  0  0
   54.5566   32.7798   20.5255 H   0  0  0  0  0  0  0  0  0  0  0  0
   55.0442   32.1588   22.8862 H   0  0  0  0  0  0  0  0  0  0  0  0
   53.5935   33.0128   24.7195 H   0  0  0  0  0  0  0  0  0  0  0  0
   51.6721   34.4602   24.1997 H   0  0  0  0  0  0  0  0  0  0  0  0
   46.9102   38.2663   22.1423 H   0  0  0  0  0  0  0  0  0  0  0  0
   51.0817   35.8298   20.9262 H   0  0  0  0  0  0  0  0  0  0  0  0
   52.6299   34.2366   19.9926 H   0  0  0  0  0  0  0  0  0  0  0  0
  1 14  1  0  0  0  0
  1 21  2  0  0  0  0
  1 22  1  0  0  0  0
  2 18  2  0  0  0  0
  2 19  1  0  0  0  0
  2 25  1  0  0  0  0
  3  4  1  0  0  0  0
  3 16  1  0  0  0  0
  3 26  1  0  0  0  0
  3 27  1  0  0  0  0
  4  5  1  0  0  0  0
  4  9  1  0  0  0  0
  4 28  1  0  0  0  0
  5  6  1  0  0  0  0
  5 29  1  0  0  0  0
  5 30  1  0  0  0  0
  6  7  1  0  0  0  0
  6 31  1  0  0  0  0
  6 32  1  0  0  0  0
  7  8  1  0  0  0  0
  7 33  1  0  0  0  0
  7 34  1  0  0  0  0
  8  9  1  0  0  0  0
  8 35  1  0  0  0  0
  8 36  1  0  0  0  0
  9 37  1  0  0  0  0
  9 38  1  0  0  0  0
 10 11  1  0  0  0  0
 10 24  2  0  0  0  0
 10 39  1  0  0  0  0
 11 12  2  0  0  0  0
 11 40  1  0  0  0  0
 12 13  1  0  0  0  0
 12 41  1  0  0  0  0
 13 23  2  0  0  0  0
 13 42  1  0  0  0  0
 14 15  2  0  0  0  0
 15 16  1  0  0  0  0
 15 17  1  0  0  0  0
 17 18  1  0  0  0  0
 17 20  2  0  0  0  0
 19 20  1  0  0  0  0
 19 43  1  0  0  0  0
 20 21  1  0  0  0  0
 22 23  1  0  0  0  0
 22 44  1  0  0  0  0
 23 24  1  0  0  0  0
 24 45  1  0  0  0  0
M  END
>  <r_user_dG.exp>
-8.179000

$$$$
