ejm_31
  PyMOL2.3          3D                             0

 32 33  0  0  0  0  0  0  0  0999 V2000
   35.4508   32.9244   31.9694 C   0  0  0  0  0  0  0  0  0  0  0  0
   36.2874   33.4921   31.0129 C   0  0  0  0  0  0  0  0  0  0  0  0
   35.8307   33.6967   29.7154 C   0  0  0  0  0  0  0  0  0  0  0  0
   34.5227   33.3215   29.3583 C   0  0  0  0  0  0  0  0  0  0  0  0
   33.6804   32.7590   30.3371 C   0  0  0  0  0  0  0  0  0  0  0  0
   34.1549   32.5621   31.6276 C   0  0  0  0  0  0  0  0  0  0  0  0
   32.0484   32.3095   29.9333 Cl  0  0  0  0  0  0  0  0  0  0  0  0
   33.9977   33.4969   27.9844 C   0  0  0  0  0  0  0  0  0  0  0  0
   33.9177   32.5202   27.2580 O   0  0  0  0  0  0  0  0  0  0  0  0
   33.5907   34.7253   27.6098 N   0  0  0  0  0  0  0  0  0  0  0  0
   33.0065   35.1315   26.4054 C   0  0  0  0  0  0  0  0  0  0  0  0
   32.4752   34.2796   25.4172 C   0  0  0  0  0  0  0  0  0  0  0  0
   31.8296   34.8397   24.3189 C   0  0  0  0  0  0  0  0  0  0  0  0
   31.7184   36.1588   24.1888 N   0  0  0  0  0  0  0  0  0  0  0  0
   32.2125   37.0028   25.0935 C   0  0  0  0  0  0  0  0  0  0  0  0
   32.8223   36.5008   26.2454 C   0  0  0  0  0  0  0  0  0  0  0  0
   32.0082   38.3774   24.9292 N   0  0  0  0  0  0  0  0  0  0  0  0
   32.7726   39.3831   25.4314 C   0  0  0  0  0  0  0  0  0  0  0  0
   33.7744   39.1867   26.0994 O   0  0  0  0  0  0  0  0  0  0  0  0
   32.3078   40.7888   25.1399 C   0  0  0  0  0  0  0  0  0  0  0  0
   36.8797   34.4395   28.5568 Cl  0  0  0  0  0  0  0  0  0  0  0  0
   31.2733   40.8508   24.8167 H   0  0  0  0  0  0  0  0  0  0  0  0
   35.8100   32.7662   32.9761 H   0  0  0  0  0  0  0  0  0  0  0  0
   37.2957   33.7753   31.2776 H   0  0  0  0  0  0  0  0  0  0  0  0
   33.5040   32.1221   32.3692 H   0  0  0  0  0  0  0  0  0  0  0  0
   33.6943   35.5060   28.2422 H   0  0  0  0  0  0  0  0  0  0  0  0
   32.5721   33.2086   25.5191 H   0  0  0  0  0  0  0  0  0  0  0  0
   31.4093   34.2013   23.5557 H   0  0  0  0  0  0  0  0  0  0  0  0
   33.1520   37.1832   27.0149 H   0  0  0  0  0  0  0  0  0  0  0  0
   31.2226   38.7109   24.3879 H   0  0  0  0  0  0  0  0  0  0  0  0
   32.9512   41.2320   24.3800 H   0  0  0  0  0  0  0  0  0  0  0  0
   32.4470   41.4067   26.0269 H   0  0  0  0  0  0  0  0  0  0  0  0
  1  2  1  0  0  0  0
  1  6  2  0  0  0  0
  1 23  1  0  0  0  0
  2  3  2  0  0  0  0
  2 24  1  0  0  0  0
  3  4  1  0  0  0  0
  3 21  1  0  0  0  0
  4  5  2  0  0  0  0
  4  8  1  0  0  0  0
  5  6  1  0  0  0  0
  5  7  1  0  0  0  0
  6 25  1  0  0  0  0
  8  9  2  0  0  0  0
  8 10  1  0  0  0  0
 10 11  1  0  0  0  0
 10 26  1  0  0  0  0
 11 12  1  0  0  0  0
 11 16  2  0  0  0  0
 12 13  2  0  0  0  0
 12 27  1  0  0  0  0
 13 14  1  0  0  0  0
 13 28  1  0  0  0  0
 14 15  2  0  0  0  0
 15 16  1  0  0  0  0
 15 17  1  0  0  0  0
 16 29  1  0  0  0  0
 17 18  1  0  0  0  0
 17 30  1  0  0  0  0
 18 19  2  0  0  0  0
 18 20  1  0  0  0  0
 20 22  1  0  0  0  0
 20 31  1  0  0  0  0
 20 32  1  0  0  0  0
M  END
>  <r_user_dG.exp>
-9.540000

$$$$
jmc_30
  PyMOL2.3          3D                             0

 37 39  0  0  1  0  0  0  0  0999 V2000
   35.4508   32.9244   31.9694 C   0  0  0  0  0  0  0  0  0  0  0  0
   36.2874   33.4921   31.0129 C   0  0  0  0  0  0  0  0  0  0  0  0
   35.8307   33.6967   29.7154 C   0  0  0  0  0  0  0  0  0  0  0  0
   34.5227   33.3215   29.3583 C   0  0  0  0  0  0  0  0  0  0  0  0
   33.6804   32.7590   30.3371 C   0  0  0  0  0  0  0  0  0  0  0  0
   34.1549   32.5621   31.6276 C   0  0  0  0  0  0  0  0  0  0  0  0
   32.0484   32.3095   29.9333 Cl  0  0  0  0  0  0  0  0  0  0  0  0
   33.9977   33.4969   27.9844 C   0  0  0  0  0  0  0  0  0  0  0  0
   33.9177   32.5202   27.2580 O   0  0  0  0  0  0  0  0  0  0  0  0
   33.5907   34.7253   27.6098 N   0  0  0  0  0  0  0  0  0  0  0  0
   33.0065   35.1315   26.4054 C   0  0  0  0  0  0  0  0  0  0  0  0
   32.4752   34.2796   25.4172 C   0  0  0  0  0  0  0  0  0  0  0  0
   31.8296   34.8397   24.3189 C   0  0  0  0  0  0  0  0  0  0  0  0
   31.7184   36.1588   24.1888 N   0  0  0  0  0  0  0  0  0  0  0  0
   32.2125   37.0028   25.0935 C   0  0  0  0  0  0  0  0  0  0  0  0
   32.8223   36.5008   26.2454 C   0  0  0  0  0  0  0  0  0  0  0  0
   32.0082   38.3774   24.9292 N   0  0  0  0  0  0  0  0  0  0  0  0
   32.7726   39.3831   25.4314 C   0  0  0  0  0  0  0  0  0  0  0  0
   33.7744   39.1867   26.0994 O   0  0  0  0  0  0  0  0  0  0  0  0
   32.3078   40.7888   25.1399 C   0  0  1  0  0  0  0  0  0  0  0  0
   32.8430   41.9489   25.9856 C   0  0  0  0  0  0  0  0  0  0  0  0
   33.2954   41.7808   24.5339 C   0  0  1  0  0  0  0  0  0  0  0  0
   34.6923   41.2906   24.2927 C   0  0  0  0  0  0  0  0  0  0  0  0
   36.8797   34.4395   28.5568 Cl  0  0  0  0  0  0  0  0  0  0  0  0
   31.2733   40.8508   24.8167 H   0  0  0  0  0  0  0  0  0  0  0  0
   32.9140   42.4995   23.8108 H   0  0  0  0  0  0  0  0  0  0  0  0
   35.8100   32.7662   32.9761 H   0  0  0  0  0  0  0  0  0  0  0  0
   37.2957   33.7753   31.2776 H   0  0  0  0  0  0  0  0  0  0  0  0
   33.5040   32.1221   32.3692 H   0  0  0  0  0  0  0  0  0  0  0  0
   33.6943   35.5060   28.2422 H   0  0  0  0  0  0  0  0  0  0  0  0
   32.5721   33.2086   25.5191 H   0  0  0  0  0  0  0  0  0  0  0  0
   31.4093   34.2013   23.5557 H   0  0  0  0  0  0  0  0  0  0  0  0
   33.1520   37.1832   27.0149 H   0  0  0  0  0  0  0  0  0  0  0  0
   31.2226   38.7109   24.3879 H   0  0  0  0  0  0  0  0  0  0  0  0
   32.0115   42.5728   26.3153 H   0  0  0  0  0  0  0  0  0  0  0  0
   33.3678   41.5533   26.8562 H   0  0  0  0  0  0  0  0  0  0  0  0
   36.0623   40.8098   24.0561 N   0  0  0  0  0  0  0  0  0  0  0  0
  1  2  1  0  0  0  0
  1  6  2  0  0  0  0
  1 27  1  0  0  0  0
  2  3  2  0  0  0  0
  2 28  1  0  0  0  0
  3  4  1  0  0  0  0
  3 24  1  0  0  0  0
  4  5  2  0  0  0  0
  4  8  1  0  0  0  0
  5  6  1  0  0  0  0
  5  7  1  0  0  0  0
  6 29  1  0  0  0  0
  8  9  2  0  0  0  0
  8 10  1  0  0  0  0
 10 11  1  0  0  0  0
 10 30  1  0  0  0  0
 11 12  1  0  0  0  0
 11 16  2  0  0  0  0
 12 13  2  0  0  0  0
 12 31  1  0  0  0  0
 13 14  1  0  0  0  0
 13 32  1  0  0  0  0
 14 15  2  0  0  0  0
 15 16  1  0  0  0  0
 15 17  1  0  0  0  0
 16 33  1  0  0  0  0
 17 18  1  0  0  0  0
 17 34  1  0  0  0  0
 18 19  2  0  0  0  0
 18 20  1  0  0  0  0
 20 21  1  0  0  0  0
 20 22  1  0  0  0  0
 20 25  1  0  0  0  0
 21 22  1  0  0  0  0
 21 35  1  0  0  0  0
 21 36  1  0  0  0  0
 22 23  1  0  0  0  0
 22 26  1  0  0  0  0
 23 37  3  0  0  0  0
M  END
>  <r_user_dG.exp>
-10.940000

$$$$
ejm_50
  PyMOL2.3          3D                             0

 33 34  0  0  0  0  0  0  0  0999 V2000
   35.4508   32.9244   31.9694 C   0  0  0  0  0  0  0  0  0  0  0  0
   36.2874   33.4921   31.0129 C   0  0  0  0  0  0  0  0  0  0  0  0
   35.8307   33.6967   29.7154 C   0  0  0  0  0  0  0  0  0  0  0  0
   34.5227   33.3215   29.3583 C   0  0  0  0  0  0  0  0  0  0  0  0
   33.6804   32.7590   30.3371 C   0  0  0  0  0  0  0  0  0  0  0  0
   34.1549   32.5621   31.6276 C   0  0  0  0  0  0  0  0  0  0  0  0
   32.0484   32.3095   29.9333 Cl  0  0  0  0  0  0  0  0  0  0  0  0
   33.9977   33.4969   27.9844 C   0  0  0  0  0  0  0  0  0  0  0  0
   33.9177   32.5202   27.2580 O   0  0  0  0  0  0  0  0  0  0  0  0
   33.5907   34.7253   27.6098 N   0  0  0  0  0  0  0  0  0  0  0  0
   33.0065   35.1315   26.4054 C   0  0  0  0  0  0  0  0  0  0  0  0
   32.4752   34.2796   25.4172 C   0  0  0  0  0  0  0  0  0  0  0  0
   31.8296   34.8397   24.3189 C   0  0  0  0  0  0  0  0  0  0  0  0
   31.7184   36.1588   24.1888 N   0  0  0  0  0  0  0  0  0  0  0  0
   32.2125   37.0028   25.0935 C   0  0  0  0  0  0  0  0  0  0  0  0
   32.8223   36.5008   26.2454 C   0  0  0  0  0  0  0  0  0  0  0  0
   32.0082   38.3774   24.9292 N   0  0  0  0  0  0  0  0  0  0  0  0
   32.7726   39.3831   25.4314 C   0  0  0  0  0  0  0  0  0  0  0  0
   33.7744   39.1867   26.0994 O   0  0  0  0  0  0  0  0  0  0  0  0
   32.3078   40.7888   25.1399 C   0  0  0  0  0  0  0  0  0  0  0  0
   36.8797   34.4395   28.5568 Cl  0  0  0  0  0  0  0  0  0  0  0  0
   31.9373   40.9278   24.1291 H   0  0  0  0  0  0  0  0  0  0  0  0
   35.8100   32.7662   32.9761 H   0  0  0  0  0  0  0  0  0  0  0  0
   37.2957   33.7753   31.2776 H   0  0  0  0  0  0  0  0  0  0  0  0
   33.5040   32.1221   32.3692 H   0  0  0  0  0  0  0  0  0  0  0  0
   33.6943   35.5060   28.2422 H   0  0  0  0  0  0  0  0  0  0  0  0
   32.5721   33.2086   25.5191 H   0  0  0  0  0  0  0  0  0  0  0  0
   31.4093   34.2013   23.5557 H   0  0  0  0  0  0  0  0  0  0  0  0
   33.1520   37.1832   27.0149 H   0  0  0  0  0  0  0  0  0  0  0  0
   31.2226   38.7109   24.3879 H   0  0  0  0  0  0  0  0  0  0  0  0
   31.5304   41.0672   25.8515 H   0  0  0  0  0  0  0  0  0  0  0  0
   33.0996   42.7638   25.1838 H   0  0  0  0  0  0  0  0  0  0  0  0
   33.4363   41.7985   25.3893 O   0  0  0  0  0  0  0  0  0  0  0  0
  1  2  1  0  0  0  0
  1  6  2  0  0  0  0
  1 23  1  0  0  0  0
  2  3  2  0  0  0  0
  2 24  1  0  0  0  0
  3  4  1  0  0  0  0
  3 21  1  0  0  0  0
  4  5  2  0  0  0  0
  4  8  1  0  0  0  0
  5  6  1  0  0  0  0
  5  7  1  0  0  0  0
  6 25  1  0  0  0  0
  8  9  2  0  0  0  0
  8 10  1  0  0  0  0
 10 11  1  0  0  0  0
 10 26  1  0  0  0  0
 11 12  1  0  0  0  0
 11 16  2  0  0  0  0
 12 13  2  0  0  0  0
 12 27  1  0  0  0  0
 13 14  1  0  0  0  0
 13 28  1  0  0  0  0
 14 15  2  0  0  0  0
 15 16  1  0  0  0  0
 15 17  1  0  0  0  0
 16 29  1  0  0  0  0
 17 18  1  0  0  0  0
 17 30  1  0  0  0  0
 18 19  2  0  0  0  0
 18 20  1  0  0  0  0
 20 22  1  0  0  0  0
 20 31  1  0  0  0  0
 20 33  1  0  0  0  0
 32 33  1  0  0  0  0
M  END
>  <r_user_dG.exp>
-8.980000

$$$$
ejm_46
  PyMOL2.3          3D                             0

 36 38  0  0  0  0  0  0  0  0999 V2000
   35.4508   32.9244   31.9694 C   0  0  0  0  0  0  0  0  0  0  0  0
   36.2874   33.4921   31.0129 C   0  0  0  0  0  0  0  0  0  0  0  0
   35.8307   33.6967   29.7154 C   0  0  0  0  0  0  0  0  0  0  0  0
   34.5227   33.3215   29.3583 C   0  0  0  0  0  0  0  0  0  0  0  0
   33.6804   32.7590   30.3371 C   0  0  0  0  0  0  0  0  0  0  0  0
   34.1549   32.5621   31.6276 C   0  0  0  0  0  0  0  0  0  0  0  0
   32.0484   32.3095   29.9333 Cl  0  0  0  0  0  0  0  0  0  0  0  0
   33.9977   33.4969   27.9844 C   0  0  0  0  0  0  0  0  0  0  0  0
   33.9177   32.5202   27.2580 O   0  0  0  0  0  0  0  0  0  0  0  0
   33.5907   34.7253   27.6098 N   0  0  0  0  0  0  0  0  0  0  0  0
   33.0065   35.1315   26.4054 C   0  0  0  0  0  0  0  0  0  0  0  0
   32.4752   34.2796   25.4172 C   0  0  0  0  0  0  0  0  0  0  0  0
   31.8296   34.8397   24.3189 C   0  0  0  0  0  0  0  0  0  0  0  0
   31.7184   36.1588   24.1888 N   0  0  0  0  0  0  0  0  0  0  0  0
   32.2125   37.0028   25.0935 C   0  0  0  0  0  0  0  0  0  0  0  0
   32.8223   36.5008   26.2454 C   0  0  0  0  0  0  0  0  0  0  0  0
   32.0082   38.3774   24.9292 N   0  0  0  0  0  0  0  0  0  0  0  0
   32.7726   39.3831   25.4314 C   0  0  0  0  0  0  0  0  0  0  0  0
   33.7744   39.1867   26.0994 O   0  0  0  0  0  0  0  0  0  0  0  0
   32.3078   40.7888   25.1399 C   0  0  0  0  0  0  0  0  0  0  0  0
   32.8430   41.9489   25.9856 C   0  0  0  0  0  0  0  0  0  0  0  0
   33.2954   41.7808   24.5339 C   0  0  0  0  0  0  0  0  0  0  0  0
   34.3105   41.4246   24.3586 H   0  0  0  0  0  0  0  0  0  0  0  0
   36.8797   34.4395   28.5568 Cl  0  0  0  0  0  0  0  0  0  0  0  0
   31.2733   40.8508   24.8167 H   0  0  0  0  0  0  0  0  0  0  0  0
   32.9140   42.4995   23.8108 H   0  0  0  0  0  0  0  0  0  0  0  0
   35.8100   32.7662   32.9761 H   0  0  0  0  0  0  0  0  0  0  0  0
   37.2957   33.7753   31.2776 H   0  0  0  0  0  0  0  0  0  0  0  0
   33.5040   32.1221   32.3692 H   0  0  0  0  0  0  0  0  0  0  0  0
   33.6943   35.5060   28.2422 H   0  0  0  0  0  0  0  0  0  0  0  0
   32.5721   33.2086   25.5191 H   0  0  0  0  0  0  0  0  0  0  0  0
   31.4093   34.2013   23.5557 H   0  0  0  0  0  0  0  0  0  0  0  0
   33.1520   37.1832   27.0149 H   0  0  0  0  0  0  0  0  0  0  0  0
   31.2226   38.7109   24.3879 H   0  0  0  0  0  0  0  0  0  0  0  0
   32.0115   42.5728   26.3153 H   0  0  0  0  0  0  0  0  0  0  0  0
   33.3678   41.5533   26.8562 H   0  0  0  0  0  0  0  0  0  0  0  0
  1  2  1  0  0  0  0
  1  6  2  0  0  0  0
  1 27  1  0  0  0  0
  2  3  2  0  0  0  0
  2 28  1  0  0  0  0
  3  4  1  0  0  0  0
  3 24  1  0  0  0  0
  4  5  2  0  0  0  0
  4  8  1  0  0  0  0
  5  6  1  0  0  0  0
  5  7  1  0  0  0  0
  6 29  1  0  0  0  0
  8  9  2  0  0  0  0
  8 10  1  0  0  0  0
 10 11  1  0  0  0  0
 10 30  1  0  0  0  0
 11 12  1  0  0  0  0
 11 16  2  0  0  0  0
 12 13  2  0  0  0  0
 12 31  1  0  0  0  0
 13 14  1  0  0  0  0
 13 32  1  0  0  0  0
 14 15  2  0  0  0  0
 15 16  1  0  0  0  0
 15 17  1  0  0  0  0
 16 33  1  0  0  0  0
 17 18  1  0  0  0  0
 17 34  1  0  0  0  0
 18 19  2  0  0  0  0
 18 20  1  0  0  0  0
 20 21  1  0  0  0  0
 20 22  1  0  0  0  0
 20 25  1  0  0  0  0
 21 22  1  0  0  0  0
 21 35  1  0  0  0  0
 21 36  1  0  0  0  0
 22 23  1  0  0  0  0
 22 26  1  0  0  0  0
M  END
>  <r_user_dG.exp>
-11.310000

$$$$
ejm_55
  PyMOL2.3          3D                             0

 33 34  0  0  0  0  0  0  0  0999 V2000
   35.4508   32.9244   31.9694 C   0  0  0  0  0  0  0  0  0  0  0  0
   36.2874   33.4921   31.0129 C   0  0  0  0  0  0  0  0  0  0  0  0
   35.8307   33.6967   29.7154 C   0  0  0  0  0  0  0  0  0  0  0  0
   34.5227   33.3215   29.3583 C   0  0  0  0  0  0  0  0  0  0  0  0
   33.6804   32.7590   30.3371 C   0  0  0  0  0  0  0  0  0  0  0  0
   34.1549   32.5621   31.6276 C   0  0  0  0  0  0  0  0  0  0  0  0
   32.0484   32.3095   29.9333 Cl  0  0  0  0  0  0  0  0  0  0  0  0
   33.9977   33.4969   27.9844 C   0  0  0  0  0  0  0  0  0  0  0  0
   33.9177   32.5202   27.2580 O   0  0  0  0  0  0  0  0  0  0  0  0
   33.5907   34.7253   27.6098 N   0  0  0  0  0  0  0  0  0  0  0  0
   33.0065   35.1315   26.4054 C   0  0  0  0  0  0  0  0  0  0  0  0
   32.4752   34.2796   25.4172 C   0  0  0  0  0  0  0  0  0  0  0  0
   31.8296   34.8397   24.3189 C   0  0  0  0  0  0  0  0  0  0  0  0
   31.7184   36.1588   24.1888 N   0  0  0  0  0  0  0  0  0  0  0  0
   32.2125   37.0028   25.0935 C   0  0  0  0  0  0  0  0  0  0  0  0
   32.8223   36.5008   26.2454 C   0  0  0  0  0  0  0  0  0  0  0  0
   32.0082   38.3774   24.9292 N   0  0  0  0  0  0  0  0  0  0  0  0
   32.7726   39.3831   25.4314 C   0  0  0  0  0  0  0  0  0  0  0  0
   33.7744   39.1867   26.0994 O   0  0  0  0  0  0  0  0  0  0  0  0
   36.8797   34.4395   28.5568 Cl  0  0  0  0  0  0  0  0  0  0  0  0
   35.8100   32.7662   32.9761 H   0  0  0  0  0  0  0  0  0  0  0  0
   37.2957   33.7753   31.2776 H   0  0  0  0  0  0  0  0  0  0  0  0
   33.5040   32.1221   32.3692 H   0  0  0  0  0  0  0  0  0  0  0  0
   33.6943   35.5060   28.2422 H   0  0  0  0  0  0  0  0  0  0  0  0
   32.5721   33.2086   25.5191 H   0  0  0  0  0  0  0  0  0  0  0  0
   31.4093   34.2013   23.5557 H   0  0  0  0  0  0  0  0  0  0  0  0
   33.1520   37.1832   27.0149 H   0  0  0  0  0  0  0  0  0  0  0  0
   31.2226   38.7109   24.3879 H   0  0  0  0  0  0  0  0  0  0  0  0
   33.3414   41.8453   25.3547 C   0  0  0  0  0  0  0  0  0  0  0  0
   33.0228   42.7683   24.8705 H   0  0  0  0  0  0  0  0  0  0  0  0
   33.4532   42.0170   26.4253 H   0  0  0  0  0  0  0  0  0  0  0  0
   32.2901   40.7888   25.1345 O   0  0  0  0  0  0  0  0  0  0  0  0
   34.2906   41.5153   24.9325 H   0  0  0  0  0  0  0  0  0  0  0  0
  1  2  1  0  0  0  0
  1  6  2  0  0  0  0
  1 21  1  0  0  0  0
  2  3  2  0  0  0  0
  2 22  1  0  0  0  0
  3  4  1  0  0  0  0
  3 20  1  0  0  0  0
  4  5  2  0  0  0  0
  4  8  1  0  0  0  0
  5  6  1  0  0  0  0
  5  7  1  0  0  0  0
  6 23  1  0  0  0  0
  8  9  2  0  0  0  0
  8 10  1  0  0  0  0
 10 11  1  0  0  0  0
 10 24  1  0  0  0  0
 11 12  1  0  0  0  0
 11 16  2  0  0  0  0
 12 13  2  0  0  0  0
 12 25  1  0  0  0  0
 13 14  1  0  0  0  0
 13 26  1  0  0  0  0
 14 15  2  0  0  0  0
 15 16  1  0  0  0  0
 15 17  1  0  0  0  0
 16 27  1  0  0  0  0
 17 18  1  0  0  0  0
 17 28  1  0  0  0  0
 18 19  2  0  0  0  0
 18 32  1  0  0  0  0
 29 30  1  0  0  0  0
 29 31  1  0  0  0  0
 29 32  1  0  0  0  0
 29 33  1  0  0  0  0
M  END
>  <r_user_dG.exp>
-9.210000

$$$$
ejm_43
  PyMOL2.3          3D                             0

 38 39  0  0  0  0  0  0  0  0999 V2000
   35.4508   32.9244   31.9694 C   0  0  0  0  0  0  0  0  0  0  0  0
   36.2874   33.4921   31.0129 C   0  0  0  0  0  0  0  0  0  0  0  0
   35.8307   33.6967   29.7154 C   0  0  0  0  0  0  0  0  0  0  0  0
   34.5227   33.3215   29.3583 C   0  0  0  0  0  0  0  0  0  0  0  0
   33.6804   32.7590   30.3371 C   0  0  0  0  0  0  0  0  0  0  0  0
   34.1549   32.5621   31.6276 C   0  0  0  0  0  0  0  0  0  0  0  0
   32.0484   32.3095   29.9333 Cl  0  0  0  0  0  0  0  0  0  0  0  0
   33.9977   33.4969   27.9844 C   0  0  0  0  0  0  0  0  0  0  0  0
   33.9177   32.5202   27.2580 O   0  0  0  0  0  0  0  0  0  0  0  0
   33.5907   34.7253   27.6098 N   0  0  0  0  0  0  0  0  0  0  0  0
   33.0065   35.1315   26.4054 C   0  0  0  0  0  0  0  0  0  0  0  0
   32.4752   34.2796   25.4172 C   0  0  0  0  0  0  0  0  0  0  0  0
   31.8296   34.8397   24.3189 C   0  0  0  0  0  0  0  0  0  0  0  0
   31.7184   36.1588   24.1888 N   0  0  0  0  0  0  0  0  0  0  0  0
   32.2125   37.0028   25.0935 C   0  0  0  0  0  0  0  0  0  0  0  0
   32.8223   36.5008   26.2454 C   0  0  0  0  0  0  0  0  0  0  0  0
   32.0082   38.3774   24.9292 N   0  0  0  0  0  0  0  0  0  0  0  0
   32.7726   39.3831   25.4314 C   0  0  0  0  0  0  0  0  0  0  0  0
   33.7744   39.1867   26.0994 O   0  0  0  0  0  0  0  0  0  0  0  0
   32.3078   40.7888   25.1399 C   0  0  0  0  0  0  0  0  0  0  0  0
   36.8797   34.4395   28.5568 Cl  0  0  0  0  0  0  0  0  0  0  0  0
   31.7958   40.9809   23.7432 C   0  0  0  0  0  0  0  0  0  0  0  0
   35.8100   32.7662   32.9761 H   0  0  0  0  0  0  0  0  0  0  0  0
   37.2957   33.7753   31.2776 H   0  0  0  0  0  0  0  0  0  0  0  0
   33.5040   32.1221   32.3692 H   0  0  0  0  0  0  0  0  0  0  0  0
   33.6943   35.5060   28.2422 H   0  0  0  0  0  0  0  0  0  0  0  0
   32.5721   33.2086   25.5191 H   0  0  0  0  0  0  0  0  0  0  0  0
   31.4093   34.2013   23.5557 H   0  0  0  0  0  0  0  0  0  0  0  0
   33.1520   37.1832   27.0149 H   0  0  0  0  0  0  0  0  0  0  0  0
   31.2226   38.7109   24.3879 H   0  0  0  0  0  0  0  0  0  0  0  0
   33.4332   41.7475   25.3935 C   0  0  0  0  0  0  0  0  0  0  0  0
   31.5304   41.0672   25.8515 H   0  0  0  0  0  0  0  0  0  0  0  0
   33.0996   42.7638   25.1838 H   0  0  0  0  0  0  0  0  0  0  0  0
   33.7444   41.6758   26.4357 H   0  0  0  0  0  0  0  0  0  0  0  0
   34.2744   41.5007   24.7459 H   0  0  0  0  0  0  0  0  0  0  0  0
   31.4806   42.0158   23.6104 H   0  0  0  0  0  0  0  0  0  0  0  0
   32.5870   40.7482   23.0304 H   0  0  0  0  0  0  0  0  0  0  0  0
   30.9473   40.3184   23.5724 H   0  0  0  0  0  0  0  0  0  0  0  0
  1  2  1  0  0  0  0
  1  6  2  0  0  0  0
  1 23  1  0  0  0  0
  2  3  2  0  0  0  0
  2 24  1  0  0  0  0
  3  4  1  0  0  0  0
  3 21  1  0  0  0  0
  4  5  2  0  0  0  0
  4  8  1  0  0  0  0
  5  6  1  0  0  0  0
  5  7  1  0  0  0  0
  6 25  1  0  0  0  0
  8  9  2  0  0  0  0
  8 10  1  0  0  0  0
 10 11  1  0  0  0  0
 10 26  1  0  0  0  0
 11 12  1  0  0  0  0
 11 16  2  0  0  0  0
 12 13  2  0  0  0  0
 12 27  1  0  0  0  0
 13 14  1  0  0  0  0
 13 28  1  0  0  0  0
 14 15  2  0  0  0  0
 15 16  1  0  0  0  0
 15 17  1  0  0  0  0
 16 29  1  0  0  0  0
 17 18  1  0  0  0  0
 17 30  1  0  0  0  0
 18 19  2  0  0  0  0
 18 20  1  0  0  0  0
 20 22  1  0  0  0  0
 20 31  1  0  0  0  0
 20 32  1  0  0  0  0
 22 36  1  0  0  0  0
 22 37  1  0  0  0  0
 22 38  1  0  0  0  0
 31 33  1  0  0  0  0
 31 34  1  0  0  0  0
 31 35  1  0  0  0  0
M  END
>  <r_user_dG.exp>
-8.260000

$$$$
jmc_28
  PyMOL2.3          3D                             0

 39 41  0  0  1  0  0  0  0  0999 V2000
   35.4508   32.9244   31.9694 C   0  0  0  0  0  0  0  0  0  0  0  0
   36.2874   33.4921   31.0129 C   0  0  0  0  0  0  0  0  0  0  0  0
   35.8307   33.6967   29.7154 C   0  0  0  0  0  0  0  0  0  0  0  0
   34.5227   33.3215   29.3583 C   0  0  0  0  0  0  0  0  0  0  0  0
   33.6804   32.7590   30.3371 C   0  0  0  0  0  0  0  0  0  0  0  0
   34.1549   32.5621   31.6276 C   0  0  0  0  0  0  0  0  0  0  0  0
   32.0484   32.3095   29.9333 Cl  0  0  0  0  0  0  0  0  0  0  0  0
   33.9977   33.4969   27.9844 C   0  0  0  0  0  0  0  0  0  0  0  0
   33.9177   32.5202   27.2580 O   0  0  0  0  0  0  0  0  0  0  0  0
   33.5907   34.7253   27.6098 N   0  0  0  0  0  0  0  0  0  0  0  0
   33.0065   35.1315   26.4054 C   0  0  0  0  0  0  0  0  0  0  0  0
   32.4752   34.2796   25.4172 C   0  0  0  0  0  0  0  0  0  0  0  0
   31.8296   34.8397   24.3189 C   0  0  0  0  0  0  0  0  0  0  0  0
   31.7184   36.1588   24.1888 N   0  0  0  0  0  0  0  0  0  0  0  0
   32.2125   37.0028   25.0935 C   0  0  0  0  0  0  0  0  0  0  0  0
   32.8223   36.5008   26.2454 C   0  0  0  0  0  0  0  0  0  0  0  0
   32.0082   38.3774   24.9292 N   0  0  0  0  0  0  0  0  0  0  0  0
   32.7726   39.3831   25.4314 C   0  0  0  0  0  0  0  0  0  0  0  0
   33.7744   39.1867   26.0994 O   0  0  0  0  0  0  0  0  0  0  0  0
   32.3078   40.7888   25.1399 C   0  0  1  0  0  0  0  0  0  0  0  0
   32.8430   41.9489   25.9856 C   0  0  0  0  0  0  0  0  0  0  0  0
   33.2954   41.7808   24.5339 C   0  0  1  0  0  0  0  0  0  0  0  0
   34.6923   41.2906   24.2927 C   0  0  0  0  0  0  0  0  0  0  0  0
   36.8797   34.4395   28.5568 Cl  0  0  0  0  0  0  0  0  0  0  0  0
   31.2733   40.8508   24.8167 H   0  0  0  0  0  0  0  0  0  0  0  0
   32.9140   42.4995   23.8108 H   0  0  0  0  0  0  0  0  0  0  0  0
   35.8100   32.7662   32.9761 H   0  0  0  0  0  0  0  0  0  0  0  0
   37.2957   33.7753   31.2776 H   0  0  0  0  0  0  0  0  0  0  0  0
   33.5040   32.1221   32.3692 H   0  0  0  0  0  0  0  0  0  0  0  0
   33.6943   35.5060   28.2422 H   0  0  0  0  0  0  0  0  0  0  0  0
   32.5721   33.2086   25.5191 H   0  0  0  0  0  0  0  0  0  0  0  0
   31.4093   34.2013   23.5557 H   0  0  0  0  0  0  0  0  0  0  0  0
   33.1520   37.1832   27.0149 H   0  0  0  0  0  0  0  0  0  0  0  0
   31.2226   38.7109   24.3879 H   0  0  0  0  0  0  0  0  0  0  0  0
   32.0115   42.5728   26.3153 H   0  0  0  0  0  0  0  0  0  0  0  0
   33.3678   41.5533   26.8562 H   0  0  0  0  0  0  0  0  0  0  0  0
   35.2900   42.0931   23.8603 H   0  0  0  0  0  0  0  0  0  0  0  0
   35.1360   40.9766   25.2375 H   0  0  0  0  0  0  0  0  0  0  0  0
   34.6677   40.4455   23.6048 H   0  0  0  0  0  0  0  0  0  0  0  0
  1  2  1  0  0  0  0
  1  6  2  0  0  0  0
  1 27  1  0  0  0  0
  2  3  2  0  0  0  0
  2 28  1  0  0  0  0
  3  4  1  0  0  0  0
  3 24  1  0  0  0  0
  4  5  2  0  0  0  0
  4  8  1  0  0  0  0
  5  6  1  0  0  0  0
  5  7  1  0  0  0  0
  6 29  1  0  0  0  0
  8  9  2  0  0  0  0
  8 10  1  0  0  0  0
 10 11  1  0  0  0  0
 10 30  1  0  0  0  0
 11 12  1  0  0  0  0
 11 16  2  0  0  0  0
 12 13  2  0  0  0  0
 12 31  1  0  0  0  0
 13 14  1  0  0  0  0
 13 32  1  0  0  0  0
 14 15  2  0  0  0  0
 15 16  1  0  0  0  0
 15 17  1  0  0  0  0
 16 33  1  0  0  0  0
 17 18  1  0  0  0  0
 17 34  1  0  0  0  0
 18 19  2  0  0  0  0
 18 20  1  0  0  0  0
 20 21  1  0  0  0  0
 20 22  1  0  0  0  0
 20 25  1  0  0  0  0
 21 22  1  0  0  0  0
 21 35  1  0  0  0  0
 21 36  1  0  0  0  0
 22 23  1  0  0  0  0
 22 26  1  0  0  0  0
 23 37  1  0  0  0  0
 23 38  1  0  0  0  0
 23 39  1  0  0  0  0
M  END
>  <r_user_dG.exp>
-10.980000

$$$$
ejm_49
  PyMOL2.3          3D                             0

 39 41  0  0  0  0  0  0  0  0999 V2000
   35.4508   32.9244   31.9694 C   0  0  0  0  0  0  0  0  0  0  0  0
   36.2874   33.4921   31.0129 C   0  0  0  0  0  0  0  0  0  0  0  0
   35.8307   33.6967   29.7154 C   0  0  0  0  0  0  0  0  0  0  0  0
   34.5227   33.3215   29.3583 C   0  0  0  0  0  0  0  0  0  0  0  0
   33.6804   32.7590   30.3371 C   0  0  0  0  0  0  0  0  0  0  0  0
   34.1549   32.5621   31.6276 C   0  0  0  0  0  0  0  0  0  0  0  0
   32.0484   32.3095   29.9333 Cl  0  0  0  0  0  0  0  0  0  0  0  0
   33.9977   33.4969   27.9844 C   0  0  0  0  0  0  0  0  0  0  0  0
   33.9177   32.5202   27.2580 O   0  0  0  0  0  0  0  0  0  0  0  0
   33.5907   34.7253   27.6098 N   0  0  0  0  0  0  0  0  0  0  0  0
   33.0065   35.1315   26.4054 C   0  0  0  0  0  0  0  0  0  0  0  0
   32.4752   34.2796   25.4172 C   0  0  0  0  0  0  0  0  0  0  0  0
   31.8296   34.8397   24.3189 C   0  0  0  0  0  0  0  0  0  0  0  0
   31.7184   36.1588   24.1888 N   0  0  0  0  0  0  0  0  0  0  0  0
   32.2125   37.0028   25.0935 C   0  0  0  0  0  0  0  0  0  0  0  0
   32.8223   36.5008   26.2454 C   0  0  0  0  0  0  0  0  0  0  0  0
   32.0082   38.3774   24.9292 N   0  0  0  0  0  0  0  0  0  0  0  0
   32.7726   39.3831   25.4314 C   0  0  0  0  0  0  0  0  0  0  0  0
   33.7744   39.1867   26.0994 O   0  0  0  0  0  0  0  0  0  0  0  0
   36.8797   34.4395   28.5568 Cl  0  0  0  0  0  0  0  0  0  0  0  0
   35.8100   32.7662   32.9761 H   0  0  0  0  0  0  0  0  0  0  0  0
   37.2957   33.7753   31.2776 H   0  0  0  0  0  0  0  0  0  0  0  0
   33.5040   32.1221   32.3692 H   0  0  0  0  0  0  0  0  0  0  0  0
   33.6943   35.5060   28.2422 H   0  0  0  0  0  0  0  0  0  0  0  0
   32.5721   33.2086   25.5191 H   0  0  0  0  0  0  0  0  0  0  0  0
   31.4093   34.2013   23.5557 H   0  0  0  0  0  0  0  0  0  0  0  0
   33.1520   37.1832   27.0149 H   0  0  0  0  0  0  0  0  0  0  0  0
   31.2226   38.7109   24.3879 H   0  0  0  0  0  0  0  0  0  0  0  0
   31.6099   43.4853   24.6403 C   0  0  0  0  0  0  0  0  0  0  0  0
   31.5444   42.5267   23.6158 C   0  0  0  0  0  0  0  0  0  0  0  0
   31.9210   41.1980   23.8719 C   0  0  0  0  0  0  0  0  0  0  0  0
   32.3631   40.8280   25.1527 C   0  0  0  0  0  0  0  0  0  0  0  0
   32.4286   41.7865   26.1772 C   0  0  0  0  0  0  0  0  0  0  0  0
   32.0520   43.1152   25.9211 C   0  0  0  0  0  0  0  0  0  0  0  0
   31.3140   44.5290   24.4390 H   0  0  0  0  0  0  0  0  0  0  0  0
   31.1970   42.8174   22.6095 H   0  0  0  0  0  0  0  0  0  0  0  0
   31.8694   40.4450   23.0671 H   0  0  0  0  0  0  0  0  0  0  0  0
   32.7759   41.4958   27.1834 H   0  0  0  0  0  0  0  0  0  0  0  0
   32.1035   43.8682   26.7259 H   0  0  0  0  0  0  0  0  0  0  0  0
  1  2  1  0  0  0  0
  1  6  2  0  0  0  0
  1 21  1  0  0  0  0
  2  3  2  0  0  0  0
  2 22  1  0  0  0  0
  3  4  1  0  0  0  0
  3 20  1  0  0  0  0
  4  5  2  0  0  0  0
  4  8  1  0  0  0  0
  5  6  1  0  0  0  0
  5  7  1  0  0  0  0
  6 23  1  0  0  0  0
  8  9  2  0  0  0  0
  8 10  1  0  0  0  0
 10 11  1  0  0  0  0
 10 24  1  0  0  0  0
 11 12  1  0  0  0  0
 11 16  2  0  0  0  0
 12 13  2  0  0  0  0
 12 25  1  0  0  0  0
 13 14  1  0  0  0  0
 13 26  1  0  0  0  0
 14 15  2  0  0  0  0
 15 16  1  0  0  0  0
 15 17  1  0  0  0  0
 16 27  1  0  0  0  0
 17 18  1  0  0  0  0
 17 28  1  0  0  0  0
 18 19  2  0  0  0  0
 18 32  1  0  0  0  0
 29 30  2  0  0  0  0
 29 34  1  0  0  0  0
 29 35  1  0  0  0  0
 30 31  1  0  0  0  0
 30 36  1  0  0  0  0
 31 32  2  0  0  0  0
 31 37  1  0  0  0  0
 32 33  1  0  0  0  0
 33 34  2  0  0  0  0
 33 38  1  0  0  0  0
 34 39  1  0  0  0  0
M  END
>  <r_user_dG.exp>
-7.750000

$$$$
ejm_45
  PyMOL2.3          3D                             0

 39 41  0  0  0  0  0  0  0  0999 V2000
   35.4508   32.9244   31.9694 C   0  0  0  0  0  0  0  0  0  0  0  0
   36.2874   33.4921   31.0129 C   0  0  0  0  0  0  0  0  0  0  0  0
   35.8307   33.6967   29.7154 C   0  0  0  0  0  0  0  0  0  0  0  0
   34.5227   33.3215   29.3583 C   0  0  0  0  0  0  0  0  0  0  0  0
   33.6804   32.7590   30.3371 C   0  0  0  0  0  0  0  0  0  0  0  0
   34.1549   32.5621   31.6276 C   0  0  0  0  0  0  0  0  0  0  0  0
   32.0484   32.3095   29.9333 Cl  0  0  0  0  0  0  0  0  0  0  0  0
   33.9977   33.4969   27.9844 C   0  0  0  0  0  0  0  0  0  0  0  0
   33.9177   32.5202   27.2580 O   0  0  0  0  0  0  0  0  0  0  0  0
   33.5907   34.7253   27.6098 N   0  0  0  0  0  0  0  0  0  0  0  0
   33.0065   35.1315   26.4054 C   0  0  0  0  0  0  0  0  0  0  0  0
   32.4752   34.2796   25.4172 C   0  0  0  0  0  0  0  0  0  0  0  0
   31.8296   34.8397   24.3189 C   0  0  0  0  0  0  0  0  0  0  0  0
   31.7184   36.1588   24.1888 N   0  0  0  0  0  0  0  0  0  0  0  0
   32.2125   37.0028   25.0935 C   0  0  0  0  0  0  0  0  0  0  0  0
   32.8223   36.5008   26.2454 C   0  0  0  0  0  0  0  0  0  0  0  0
   32.0082   38.3774   24.9292 N   0  0  0  0  0  0  0  0  0  0  0  0
   32.7726   39.3831   25.4314 C   0  0  0  0  0  0  0  0  0  0  0  0
   33.7744   39.1867   26.0994 O   0  0  0  0  0  0  0  0  0  0  0  0
   32.3078   40.7888   25.1399 C   0  0  0  0  0  0  0  0  0  0  0  0
   36.8797   34.4395   28.5568 Cl  0  0  0  0  0  0  0  0  0  0  0  0
   31.9373   40.9278   24.1291 H   0  0  0  0  0  0  0  0  0  0  0  0
   35.8100   32.7662   32.9761 H   0  0  0  0  0  0  0  0  0  0  0  0
   37.2957   33.7753   31.2776 H   0  0  0  0  0  0  0  0  0  0  0  0
   33.5040   32.1221   32.3692 H   0  0  0  0  0  0  0  0  0  0  0  0
   33.6943   35.5060   28.2422 H   0  0  0  0  0  0  0  0  0  0  0  0
   32.5721   33.2086   25.5191 H   0  0  0  0  0  0  0  0  0  0  0  0
   31.4093   34.2013   23.5557 H   0  0  0  0  0  0  0  0  0  0  0  0
   33.1520   37.1832   27.0149 H   0  0  0  0  0  0  0  0  0  0  0  0
   31.2226   38.7109   24.3879 H   0  0  0  0  0  0  0  0  0  0  0  0
   31.5304   41.0672   25.8515 H   0  0  0  0  0  0  0  0  0  0  0  0
   33.0996   42.7638   25.1838 H   0  0  0  0  0  0  0  0  0  0  0  0
   33.3797   41.7497   25.3766 C   0  0  0  0  0  0  0  0  0  0  0  0
   34.3394   41.4606   26.5006 C   0  0  0  0  0  0  0  0  0  0  0  0
   34.7880   41.3125   25.0707 C   0  0  0  0  0  0  0  0  0  0  0  0
   34.7340   42.3495   27.0466 H   0  0  0  0  0  0  0  0  0  0  0  0
   34.1658   40.5108   27.0589 H   0  0  0  0  0  0  0  0  0  0  0  0
   35.4735   42.1053   24.6892 H   0  0  0  0  0  0  0  0  0  0  0  0
   34.9053   40.2666   24.7014 H   0  0  0  0  0  0  0  0  0  0  0  0
  1  2  1  0  0  0  0
  1  6  2  0  0  0  0
  1 23  1  0  0  0  0
  2  3  2  0  0  0  0
  2 24  1  0  0  0  0
  3  4  1  0  0  0  0
  3 21  1  0  0  0  0
  4  5  2  0  0  0  0
  4  8  1  0  0  0  0
  5  6  1  0  0  0  0
  5  7  1  0  0  0  0
  6 25  1  0  0  0  0
  8  9  2  0  0  0  0
  8 10  1  0  0  0  0
 10 11  1  0  0  0  0
 10 26  1  0  0  0  0
 11 12  1  0  0  0  0
 11 16  2  0  0  0  0
 12 13  2  0  0  0  0
 12 27  1  0  0  0  0
 13 14  1  0  0  0  0
 13 28  1  0  0  0  0
 14 15  2  0  0  0  0
 15 16  1  0  0  0  0
 15 17  1  0  0  0  0
 16 29  1  0  0  0  0
 17 18  1  0  0  0  0
 17 30  1  0  0  0  0
 18 19  2  0  0  0  0
 18 20  1  0  0  0  0
 20 22  1  0  0  0  0
 20 31  1  0  0  0  0
 20 33  1  0  0  0  0
 32 33  1  0  0  0  0
 33 34  1  0  0  0  0
 33 35  1  0  0  0  0
 34 35  1  0  0  0  0
 34 36  1  0  0  0  0
 34 37  1  0  0  0  0
 35 38  1  0  0  0  0
 35 39  1  0  0  0  0
M  END
>  <r_user_dG.exp>
-9.560000

$$$$
ejm_44
  PyMOL2.3          3D                             0

 41 42  0  0  0  0  0  0  0  0999 V2000
   35.4508   32.9244   31.9694 C   0  0  0  0  0  0  0  0  0  0  0  0
   36.2874   33.4921   31.0129 C   0  0  0  0  0  0  0  0  0  0  0  0
   35.8307   33.6967   29.7154 C   0  0  0  0  0  0  0  0  0  0  0  0
   34.5227   33.3215   29.3583 C   0  0  0  0  0  0  0  0  0  0  0  0
   33.6804   32.7590   30.3371 C   0  0  0  0  0  0  0  0  0  0  0  0
   34.1549   32.5621   31.6276 C   0  0  0  0  0  0  0  0  0  0  0  0
   32.0484   32.3095   29.9333 Cl  0  0  0  0  0  0  0  0  0  0  0  0
   33.9977   33.4969   27.9844 C   0  0  0  0  0  0  0  0  0  0  0  0
   33.9177   32.5202   27.2580 O   0  0  0  0  0  0  0  0  0  0  0  0
   33.5907   34.7253   27.6098 N   0  0  0  0  0  0  0  0  0  0  0  0
   33.0065   35.1315   26.4054 C   0  0  0  0  0  0  0  0  0  0  0  0
   32.4752   34.2796   25.4172 C   0  0  0  0  0  0  0  0  0  0  0  0
   31.8296   34.8397   24.3189 C   0  0  0  0  0  0  0  0  0  0  0  0
   31.7184   36.1588   24.1888 N   0  0  0  0  0  0  0  0  0  0  0  0
   32.2125   37.0028   25.0935 C   0  0  0  0  0  0  0  0  0  0  0  0
   32.8223   36.5008   26.2454 C   0  0  0  0  0  0  0  0  0  0  0  0
   32.0082   38.3774   24.9292 N   0  0  0  0  0  0  0  0  0  0  0  0
   32.7726   39.3831   25.4314 C   0  0  0  0  0  0  0  0  0  0  0  0
   33.7744   39.1867   26.0994 O   0  0  0  0  0  0  0  0  0  0  0  0
   32.3078   40.7888   25.1399 C   0  0  0  0  0  0  0  0  0  0  0  0
   36.8797   34.4395   28.5568 Cl  0  0  0  0  0  0  0  0  0  0  0  0
   31.7958   40.9809   23.7432 C   0  0  0  0  0  0  0  0  0  0  0  0
   35.8100   32.7662   32.9761 H   0  0  0  0  0  0  0  0  0  0  0  0
   37.2957   33.7753   31.2776 H   0  0  0  0  0  0  0  0  0  0  0  0
   33.5040   32.1221   32.3692 H   0  0  0  0  0  0  0  0  0  0  0  0
   33.6943   35.5060   28.2422 H   0  0  0  0  0  0  0  0  0  0  0  0
   32.5721   33.2086   25.5191 H   0  0  0  0  0  0  0  0  0  0  0  0
   31.4093   34.2013   23.5557 H   0  0  0  0  0  0  0  0  0  0  0  0
   33.1520   37.1832   27.0149 H   0  0  0  0  0  0  0  0  0  0  0  0
   31.2226   38.7109   24.3879 H   0  0  0  0  0  0  0  0  0  0  0  0
   33.4332   41.7475   25.3935 C   0  0  0  0  0  0  0  0  0  0  0  0
   31.2380   41.1720   26.1191 C   0  0  0  0  0  0  0  0  0  0  0  0
   33.0996   42.7638   25.1838 H   0  0  0  0  0  0  0  0  0  0  0  0
   33.7444   41.6758   26.4357 H   0  0  0  0  0  0  0  0  0  0  0  0
   34.2744   41.5007   24.7459 H   0  0  0  0  0  0  0  0  0  0  0  0
   31.4806   42.0158   23.6104 H   0  0  0  0  0  0  0  0  0  0  0  0
   32.5870   40.7482   23.0304 H   0  0  0  0  0  0  0  0  0  0  0  0
   30.9473   40.3184   23.5724 H   0  0  0  0  0  0  0  0  0  0  0  0
   30.9007   42.1872   25.9105 H   0  0  0  0  0  0  0  0  0  0  0  0
   30.3973   40.4842   26.0272 H   0  0  0  0  0  0  0  0  0  0  0  0
   31.6375   41.1234   27.1321 H   0  0  0  0  0  0  0  0  0  0  0  0
  1  2  1  0  0  0  0
  1  6  2  0  0  0  0
  1 23  1  0  0  0  0
  2  3  2  0  0  0  0
  2 24  1  0  0  0  0
  3  4  1  0  0  0  0
  3 21  1  0  0  0  0
  4  5  2  0  0  0  0
  4  8  1  0  0  0  0
  5  6  1  0  0  0  0
  5  7  1  0  0  0  0
  6 25  1  0  0  0  0
  8  9  2  0  0  0  0
  8 10  1  0  0  0  0
 10 11  1  0  0  0  0
 10 26  1  0  0  0  0
 11 12  1  0  0  0  0
 11 16  2  0  0  0  0
 12 13  2  0  0  0  0
 12 27  1  0  0  0  0
 13 14  1  0  0  0  0
 13 28  1  0  0  0  0
 14 15  2  0  0  0  0
 15 16  1  0  0  0  0
 15 17  1  0  0  0  0
 16 29  1  0  0  0  0
 17 18  1  0  0  0  0
 17 30  1  0  0  0  0
 18 19  2  0  0  0  0
 18 20  1  0  0  0  0
 20 22  1  0  0  0  0
 20 31  1  0  0  0  0
 20 32  1  0  0  0  0
 22 36  1  0  0  0  0
 22 37  1  0  0  0  0
 22 38  1  0  0  0  0
 31 33  1  0  0  0  0
 31 34  1  0  0  0  0
 31 35  1  0  0  0  0
 32 39  1  0  0  0  0
 32 40  1  0  0  0  0
 32 41  1  0  0  0  0
M  END
>  <r_user_dG.exp>
-7.420000

$$$$
jmc_27
  PyMOL2.3          3D                             0

 36 38  0  0  1  0  0  0  0  0999 V2000
   35.4508   32.9244   31.9694 C   0  0  0  0  0  0  0  0  0  0  0  0
   36.2874   33.4921   31.0129 C   0  0  0  0  0  0  0  0  0  0  0  0
   35.8307   33.6967   29.7154 C   0  0  0  0  0  0  0  0  0  0  0  0
   34.5227   33.3215   29.3583 C   0  0  0  0  0  0  0  0  0  0  0  0
   33.6804   32.7590   30.3371 C   0  0  0  0  0  0  0  0  0  0  0  0
   34.1549   32.5621   31.6276 C   0  0  0  0  0  0  0  0  0  0  0  0
   32.0484   32.3095   29.9333 Cl  0  0  0  0  0  0  0  0  0  0  0  0
   33.9977   33.4969   27.9844 C   0  0  0  0  0  0  0  0  0  0  0  0
   33.9177   32.5202   27.2580 O   0  0  0  0  0  0  0  0  0  0  0  0
   33.5907   34.7253   27.6098 N   0  0  0  0  0  0  0  0  0  0  0  0
   33.0065   35.1315   26.4054 C   0  0  0  0  0  0  0  0  0  0  0  0
   32.4752   34.2796   25.4172 C   0  0  0  0  0  0  0  0  0  0  0  0
   31.8296   34.8397   24.3189 C   0  0  0  0  0  0  0  0  0  0  0  0
   31.7184   36.1588   24.1888 N   0  0  0  0  0  0  0  0  0  0  0  0
   32.2125   37.0028   25.0935 C   0  0  0  0  0  0  0  0  0  0  0  0
   32.8223   36.5008   26.2454 C   0  0  0  0  0  0  0  0  0  0  0  0
   32.0082   38.3774   24.9292 N   0  0  0  0  0  0  0  0  0  0  0  0
   32.7726   39.3831   25.4314 C   0  0  0  0  0  0  0  0  0  0  0  0
   33.7744   39.1867   26.0994 O   0  0  0  0  0  0  0  0  0  0  0  0
   32.3078   40.7888   25.1399 C   0  0  1  0  0  0  0  0  0  0  0  0
   32.8430   41.9489   25.9856 C   0  0  0  0  0  0  0  0  0  0  0  0
   33.2954   41.7808   24.5339 C   0  0  1  0  0  0  0  0  0  0  0  0
   34.9671   41.1942   24.2453 Cl  0  0  0  0  0  0  0  0  0  0  0  0
   36.8797   34.4395   28.5568 Cl  0  0  0  0  0  0  0  0  0  0  0  0
   31.2733   40.8508   24.8167 H   0  0  0  0  0  0  0  0  0  0  0  0
   32.9140   42.4995   23.8108 H   0  0  0  0  0  0  0  0  0  0  0  0
   35.8100   32.7662   32.9761 H   0  0  0  0  0  0  0  0  0  0  0  0
   37.2957   33.7753   31.2776 H   0  0  0  0  0  0  0  0  0  0  0  0
   33.5040   32.1221   32.3692 H   0  0  0  0  0  0  0  0  0  0  0  0
   33.6943   35.5060   28.2422 H   0  0  0  0  0  0  0  0  0  0  0  0
   32.5721   33.2086   25.5191 H   0  0  0  0  0  0  0  0  0  0  0  0
   31.4093   34.2013   23.5557 H   0  0  0  0  0  0  0  0  0  0  0  0
   33.1520   37.1832   27.0149 H   0  0  0  0  0  0  0  0  0  0  0  0
   31.2226   38.7109   24.3879 H   0  0  0  0  0  0  0  0  0  0  0  0
   32.0115   42.5728   26.3153 H   0  0  0  0  0  0  0  0  0  0  0  0
   33.3678   41.5533   26.8562 H   0  0  0  0  0  0  0  0  0  0  0  0
  1  2  1  0  0  0  0
  1  6  2  0  0  0  0
  1 27  1  0  0  0  0
  2  3  2  0  0  0  0
  2 28  1  0  0  0  0
  3  4  1  0  0  0  0
  3 24  1  0  0  0  0
  4  5  2  0  0  0  0
  4  8  1  0  0  0  0
  5  6  1  0  0  0  0
  5  7  1  0  0  0  0
  6 29  1  0  0  0  0
  8  9  2  0  0  0  0
  8 10  1  0  0  0  0
 10 11  1  0  0  0  0
 10 30  1  0  0  0  0
 11 12  1  0  0  0  0
 11 16  2  0  0  0  0
 12 13  2  0  0  0  0
 12 31  1  0  0  0  0
 13 14  1  0  0  0  0
 13 32  1  0  0  0  0
 14 15  2  0  0  0  0
 15 16  1  0  0  0  0
 15 17  1  0  0  0  0
 16 33  1  0  0  0  0
 17 18  1  0  0  0  0
 17 34  1  0  0  0  0
 18 19  2  0  0  0  0
 18 20  1  0  0  0  0
 20 21  1  0  0  0  0
 20 22  1  0  0  0  0
 20 25  1  0  0  0  0
 21 22  1  0  0  0  0
 21 35  1  0  0  0  0
 21 36  1  0  0  0  0
 22 23  1  0  0  0  0
 22 26  1  0  0  0  0
M  END
>  <i_m_stars>
2

>  <r_user_dG.exp>
-11.280000

$$$$
ejm_48
  PyMOL2.3          3D                             0

 42 44  0  0  0  0  0  0  0  0999 V2000
   35.4508   32.9244   31.9694 C   0  0  0  0  0  0  0  0  0  0  0  0
   36.2874   33.4921   31.0129 C   0  0  0  0  0  0  0  0  0  0  0  0
   35.8307   33.6967   29.7154 C   0  0  0  0  0  0  0  0  0  0  0  0
   34.5227   33.3215   29.3583 C   0  0  0  0  0  0  0  0  0  0  0  0
   33.6804   32.7590   30.3371 C   0  0  0  0  0  0  0  0  0  0  0  0
   34.1549   32.5621   31.6276 C   0  0  0  0  0  0  0  0  0  0  0  0
   32.0484   32.3095   29.9333 Cl  0  0  0  0  0  0  0  0  0  0  0  0
   33.9977   33.4969   27.9844 C   0  0  0  0  0  0  0  0  0  0  0  0
   33.9177   32.5202   27.2580 O   0  0  0  0  0  0  0  0  0  0  0  0
   33.5907   34.7253   27.6098 N   0  0  0  0  0  0  0  0  0  0  0  0
   33.0065   35.1315   26.4054 C   0  0  0  0  0  0  0  0  0  0  0  0
   32.4752   34.2796   25.4172 C   0  0  0  0  0  0  0  0  0  0  0  0
   31.8296   34.8397   24.3189 C   0  0  0  0  0  0  0  0  0  0  0  0
   31.7184   36.1588   24.1888 N   0  0  0  0  0  0  0  0  0  0  0  0
   32.2125   37.0028   25.0935 C   0  0  0  0  0  0  0  0  0  0  0  0
   32.8223   36.5008   26.2454 C   0  0  0  0  0  0  0  0  0  0  0  0
   32.0082   38.3774   24.9292 N   0  0  0  0  0  0  0  0  0  0  0  0
   32.7726   39.3831   25.4314 C   0  0  0  0  0  0  0  0  0  0  0  0
   33.7744   39.1867   26.0994 O   0  0  0  0  0  0  0  0  0  0  0  0
   36.8797   34.4395   28.5568 Cl  0  0  0  0  0  0  0  0  0  0  0  0
   35.8100   32.7662   32.9761 H   0  0  0  0  0  0  0  0  0  0  0  0
   37.2957   33.7753   31.2776 H   0  0  0  0  0  0  0  0  0  0  0  0
   33.5040   32.1221   32.3692 H   0  0  0  0  0  0  0  0  0  0  0  0
   33.6943   35.5060   28.2422 H   0  0  0  0  0  0  0  0  0  0  0  0
   32.5721   33.2086   25.5191 H   0  0  0  0  0  0  0  0  0  0  0  0
   31.4093   34.2013   23.5557 H   0  0  0  0  0  0  0  0  0  0  0  0
   33.1520   37.1832   27.0149 H   0  0  0  0  0  0  0  0  0  0  0  0
   31.2226   38.7109   24.3879 H   0  0  0  0  0  0  0  0  0  0  0  0
   31.2950   40.8778   24.8206 H   0  0  0  0  0  0  0  0  0  0  0  0
   32.3631   40.8280   25.1527 C   0  0  0  0  0  0  0  0  0  0  0  0
   32.5693   41.6612   26.4248 C   0  0  0  0  0  0  0  0  0  0  0  0
   33.9898   42.2105   26.2778 C   0  0  0  0  0  0  0  0  0  0  0  0
   34.0500   42.5765   24.7930 C   0  0  0  0  0  0  0  0  0  0  0  0
   33.3066   41.4292   24.0952 C   0  0  0  0  0  0  0  0  0  0  0  0
   32.4293   41.0696   27.3615 H   0  0  0  0  0  0  0  0  0  0  0  0
   31.8449   42.5118   26.4411 H   0  0  0  0  0  0  0  0  0  0  0  0
   34.1914   43.0801   26.9487 H   0  0  0  0  0  0  0  0  0  0  0  0
   34.7334   41.4079   26.5028 H   0  0  0  0  0  0  0  0  0  0  0  0
   33.5025   43.5365   24.6291 H   0  0  0  0  0  0  0  0  0  0  0  0
   35.0955   42.7082   24.4231 H   0  0  0  0  0  0  0  0  0  0  0  0
   34.0377   40.6567   23.7537 H   0  0  0  0  0  0  0  0  0  0  0  0
   32.7554   41.7906   23.1938 H   0  0  0  0  0  0  0  0  0  0  0  0
  1  2  1  0  0  0  0
  1  6  2  0  0  0  0
  1 21  1  0  0  0  0
  2  3  2  0  0  0  0
  2 22  1  0  0  0  0
  3  4  1  0  0  0  0
  3 20  1  0  0  0  0
  4  5  2  0  0  0  0
  4  8  1  0  0  0  0
  5  6  1  0  0  0  0
  5  7  1  0  0  0  0
  6 23  1  0  0  0  0
  8  9  2  0  0  0  0
  8 10  1  0  0  0  0
 10 11  1  0  0  0  0
 10 24  1  0  0  0  0
 11 12  1  0  0  0  0
 11 16  2  0  0  0  0
 12 13  2  0  0  0  0
 12 25  1  0  0  0  0
 13 14  1  0  0  0  0
 13 26  1  0  0  0  0
 14 15  2  0  0  0  0
 15 16  1  0  0  0  0
 15 17  1  0  0  0  0
 16 27  1  0  0  0  0
 17 18  1  0  0  0  0
 17 28  1  0  0  0  0
 18 19  2  0  0  0  0
 18 30  1  0  0  0  0
 29 30  1  0  0  0  0
 30 31  1  0  0  0  0
 30 34  1  0  0  0  0
 31 32  1  0  0  0  0
 31 35  1  0  0  0  0
 31 36  1  0  0  0  0
 32 33  1  0  0  0  0
 32 37  1  0  0  0  0
 32 38  1  0  0  0  0
 33 34  1  0  0  0  0
 33 39  1  0  0  0  0
 33 40  1  0  0  0  0
 34 41  1  0  0  0  0
 34 42  1  0  0  0  0
M  END
>  <r_user_dG.exp>
-9

$$$$
ejm_47
  PyMOL2.3          3D                             0

 39 41  0  0  0  0  0  0  0  0999 V2000
   35.4508   32.9244   31.9694 C   0  0  0  0  0  0  0  0  0  0  0  0
   36.2874   33.4921   31.0129 C   0  0  0  0  0  0  0  0  0  0  0  0
   35.8307   33.6967   29.7154 C   0  0  0  0  0  0  0  0  0  0  0  0
   34.5227   33.3215   29.3583 C   0  0  0  0  0  0  0  0  0  0  0  0
   33.6804   32.7590   30.3371 C   0  0  0  0  0  0  0  0  0  0  0  0
   34.1549   32.5621   31.6276 C   0  0  0  0  0  0  0  0  0  0  0  0
   32.0484   32.3095   29.9333 Cl  0  0  0  0  0  0  0  0  0  0  0  0
   33.9977   33.4969   27.9844 C   0  0  0  0  0  0  0  0  0  0  0  0
   33.9177   32.5202   27.2580 O   0  0  0  0  0  0  0  0  0  0  0  0
   33.5907   34.7253   27.6098 N   0  0  0  0  0  0  0  0  0  0  0  0
   33.0065   35.1315   26.4054 C   0  0  0  0  0  0  0  0  0  0  0  0
   32.4752   34.2796   25.4172 C   0  0  0  0  0  0  0  0  0  0  0  0
   31.8296   34.8397   24.3189 C   0  0  0  0  0  0  0  0  0  0  0  0
   31.7184   36.1588   24.1888 N   0  0  0  0  0  0  0  0  0  0  0  0
   32.2125   37.0028   25.0935 C   0  0  0  0  0  0  0  0  0  0  0  0
   32.8223   36.5008   26.2454 C   0  0  0  0  0  0  0  0  0  0  0  0
   32.0082   38.3774   24.9292 N   0  0  0  0  0  0  0  0  0  0  0  0
   32.7726   39.3831   25.4314 C   0  0  0  0  0  0  0  0  0  0  0  0
   33.7744   39.1867   26.0994 O   0  0  0  0  0  0  0  0  0  0  0  0
   36.8797   34.4395   28.5568 Cl  0  0  0  0  0  0  0  0  0  0  0  0
   35.8100   32.7662   32.9761 H   0  0  0  0  0  0  0  0  0  0  0  0
   37.2957   33.7753   31.2776 H   0  0  0  0  0  0  0  0  0  0  0  0
   33.5040   32.1221   32.3692 H   0  0  0  0  0  0  0  0  0  0  0  0
   33.6943   35.5060   28.2422 H   0  0  0  0  0  0  0  0  0  0  0  0
   32.5721   33.2086   25.5191 H   0  0  0  0  0  0  0  0  0  0  0  0
   31.4093   34.2013   23.5557 H   0  0  0  0  0  0  0  0  0  0  0  0
   33.1520   37.1832   27.0149 H   0  0  0  0  0  0  0  0  0  0  0  0
   31.2226   38.7109   24.3879 H   0  0  0  0  0  0  0  0  0  0  0  0
   32.3321   40.7978   25.1465 C   0  0  0  0  0  0  0  0  0  0  0  0
   32.6998   41.7628   26.2793 C   0  0  0  0  0  0  0  0  0  0  0  0
   33.9853   42.0983   25.5147 C   0  0  0  0  0  0  0  0  0  0  0  0
   33.3216   41.5475   24.2475 C   0  0  0  0  0  0  0  0  0  0  0  0
   32.0014   42.6326   26.3410 H   0  0  0  0  0  0  0  0  0  0  0  0
   32.8590   41.2792   27.2725 H   0  0  0  0  0  0  0  0  0  0  0  0
   34.2364   43.1851   25.4767 H   0  0  0  0  0  0  0  0  0  0  0  0
   34.8524   41.4766   25.8461 H   0  0  0  0  0  0  0  0  0  0  0  0
   32.8273   42.3470   23.6438 H   0  0  0  0  0  0  0  0  0  0  0  0
   33.9757   40.8926   23.6238 H   0  0  0  0  0  0  0  0  0  0  0  0
   31.2950   40.8778   24.8206 H   0  0  0  0  0  0  0  0  0  0  0  0
  1  2  1  0  0  0  0
  1  6  2  0  0  0  0
  1 21  1  0  0  0  0
  2  3  2  0  0  0  0
  2 22  1  0  0  0  0
  3  4  1  0  0  0  0
  3 20  1  0  0  0  0
  4  5  2  0  0  0  0
  4  8  1  0  0  0  0
  5  6  1  0  0  0  0
  5  7  1  0  0  0  0
  6 23  1  0  0  0  0
  8  9  2  0  0  0  0
  8 10  1  0  0  0  0
 10 11  1  0  0  0  0
 10 24  1  0  0  0  0
 11 12  1  0  0  0  0
 11 16  2  0  0  0  0
 12 13  2  0  0  0  0
 12 25  1  0  0  0  0
 13 14  1  0  0  0  0
 13 26  1  0  0  0  0
 14 15  2  0  0  0  0
 15 16  1  0  0  0  0
 15 17  1  0  0  0  0
 16 27  1  0  0  0  0
 17 18  1  0  0  0  0
 17 28  1  0  0  0  0
 18 19  2  0  0  0  0
 18 29  1  0  0  0  0
 29 30  1  0  0  0  0
 29 32  1  0  0  0  0
 29 39  1  0  0  0  0
 30 31  1  0  0  0  0
 30 33  1  0  0  0  0
 30 34  1  0  0  0  0
 31 32  1  0  0  0  0
 31 35  1  0  0  0  0
 31 36  1  0  0  0  0
 32 37  1  0  0  0  0
 32 38  1  0  0  0  0
M  END
>  <r_user_dG.exp>
-9.700000

$$$$
jmc_23
  PyMOL2.3          3D                             0

 36 38  0  0  1  0  0  0  0  0999 V2000
   35.4508   32.9244   31.9694 C   0  0  0  0  0  0  0  0  0  0  0  0
   36.2874   33.4921   31.0129 C   0  0  0  0  0  0  0  0  0  0  0  0
   35.8307   33.6967   29.7154 C   0  0  0  0  0  0  0  0  0  0  0  0
   34.5227   33.3215   29.3583 C   0  0  0  0  0  0  0  0  0  0  0  0
   33.6804   32.7590   30.3371 C   0  0  0  0  0  0  0  0  0  0  0  0
   34.1549   32.5621   31.6276 C   0  0  0  0  0  0  0  0  0  0  0  0
   32.0484   32.3095   29.9333 Cl  0  0  0  0  0  0  0  0  0  0  0  0
   33.9977   33.4969   27.9844 C   0  0  0  0  0  0  0  0  0  0  0  0
   33.9177   32.5202   27.2580 O   0  0  0  0  0  0  0  0  0  0  0  0
   33.5907   34.7253   27.6098 N   0  0  0  0  0  0  0  0  0  0  0  0
   33.0065   35.1315   26.4054 C   0  0  0  0  0  0  0  0  0  0  0  0
   32.4752   34.2796   25.4172 C   0  0  0  0  0  0  0  0  0  0  0  0
   31.8296   34.8397   24.3189 C   0  0  0  0  0  0  0  0  0  0  0  0
   31.7184   36.1588   24.1888 N   0  0  0  0  0  0  0  0  0  0  0  0
   32.2125   37.0028   25.0935 C   0  0  0  0  0  0  0  0  0  0  0  0
   32.8223   36.5008   26.2454 C   0  0  0  0  0  0  0  0  0  0  0  0
   32.0082   38.3774   24.9292 N   0  0  0  0  0  0  0  0  0  0  0  0
   32.7726   39.3831   25.4314 C   0  0  0  0  0  0  0  0  0  0  0  0
   33.7744   39.1867   26.0994 O   0  0  0  0  0  0  0  0  0  0  0  0
   32.3078   40.7888   25.1399 C   0  0  1  0  0  0  0  0  0  0  0  0
   32.8430   41.9489   25.9856 C   0  0  0  0  0  0  0  0  0  0  0  0
   33.2954   41.7808   24.5339 C   0  0  1  0  0  0  0  0  0  0  0  0
   34.5950   41.3248   24.3095 F   0  0  0  0  0  0  0  0  0  0  0  0
   36.8797   34.4395   28.5568 Cl  0  0  0  0  0  0  0  0  0  0  0  0
   31.2733   40.8508   24.8167 H   0  0  0  0  0  0  0  0  0  0  0  0
   32.9140   42.4995   23.8108 H   0  0  0  0  0  0  0  0  0  0  0  0
   35.8100   32.7662   32.9761 H   0  0  0  0  0  0  0  0  0  0  0  0
   37.2957   33.7753   31.2776 H   0  0  0  0  0  0  0  0  0  0  0  0
   33.5040   32.1221   32.3692 H   0  0  0  0  0  0  0  0  0  0  0  0
   33.6943   35.5060   28.2422 H   0  0  0  0  0  0  0  0  0  0  0  0
   32.5721   33.2086   25.5191 H   0  0  0  0  0  0  0  0  0  0  0  0
   31.4093   34.2013   23.5557 H   0  0  0  0  0  0  0  0  0  0  0  0
   33.1520   37.1832   27.0149 H   0  0  0  0  0  0  0  0  0  0  0  0
   31.2226   38.7109   24.3879 H   0  0  0  0  0  0  0  0  0  0  0  0
   32.0115   42.5728   26.3153 H   0  0  0  0  0  0  0  0  0  0  0  0
   33.3678   41.5533   26.8562 H   0  0  0  0  0  0  0  0  0  0  0  0
  1  2  1  0  0  0  0
  1  6  2  0  0  0  0
  1 27  1  0  0  0  0
  2  3  2  0  0  0  0
  2 28  1  0  0  0  0
  3  4  1  0  0  0  0
  3 24  1  0  0  0  0
  4  5  2  0  0  0  0
  4  8  1  0  0  0  0
  5  6  1  0  0  0  0
  5  7  1  0  0  0  0
  6 29  1  0  0  0  0
  8  9  2  0  0  0  0
  8 10  1  0  0  0  0
 10 11  1  0  0  0  0
 10 30  1  0  0  0  0
 11 12  1  0  0  0  0
 11 16  2  0  0  0  0
 12 13  2  0  0  0  0
 12 31  1  0  0  0  0
 13 14  1  0  0  0  0
 13 32  1  0  0  0  0
 14 15  2  0  0  0  0
 15 16  1  0  0  0  0
 15 17  1  0  0  0  0
 16 33  1  0  0  0  0
 17 18  1  0  0  0  0
 17 34  1  0  0  0  0
 18 19  2  0  0  0  0
 18 20  1  0  0  0  0
 20 21  1  0  0  0  0
 20 22  1  0  0  0  0
 20 25  1  0  0  0  0
 21 22  1  0  0  0  0
 21 35  1  0  0  0  0
 21 36  1  0  0  0  0
 22 23  1  0  0  0  0
 22 26  1  0  0  0  0
M  END
>  <r_user_dG.exp>
-11.700000

$$$$
ejm_42
  PyMOL2.3          3D                             0

 35 36  0  0  0  0  0  0  0  0999 V2000
   35.4508   32.9244   31.9694 C   0  0  0  0  0  0  0  0  0  0  0  0
   36.2874   33.4921   31.0129 C   0  0  0  0  0  0  0  0  0  0  0  0
   35.8307   33.6967   29.7154 C   0  0  0  0  0  0  0  0  0  0  0  0
   34.5227   33.3215   29.3583 C   0  0  0  0  0  0  0  0  0  0  0  0
   33.6804   32.7590   30.3371 C   0  0  0  0  0  0  0  0  0  0  0  0
   34.1549   32.5621   31.6276 C   0  0  0  0  0  0  0  0  0  0  0  0
   32.0484   32.3095   29.9333 Cl  0  0  0  0  0  0  0  0  0  0  0  0
   33.9977   33.4969   27.9844 C   0  0  0  0  0  0  0  0  0  0  0  0
   33.9177   32.5202   27.2580 O   0  0  0  0  0  0  0  0  0  0  0  0
   33.5907   34.7253   27.6098 N   0  0  0  0  0  0  0  0  0  0  0  0
   33.0065   35.1315   26.4054 C   0  0  0  0  0  0  0  0  0  0  0  0
   32.4752   34.2796   25.4172 C   0  0  0  0  0  0  0  0  0  0  0  0
   31.8296   34.8397   24.3189 C   0  0  0  0  0  0  0  0  0  0  0  0
   31.7184   36.1588   24.1888 N   0  0  0  0  0  0  0  0  0  0  0  0
   32.2125   37.0028   25.0935 C   0  0  0  0  0  0  0  0  0  0  0  0
   32.8223   36.5008   26.2454 C   0  0  0  0  0  0  0  0  0  0  0  0
   32.0082   38.3774   24.9292 N   0  0  0  0  0  0  0  0  0  0  0  0
   32.7726   39.3831   25.4314 C   0  0  0  0  0  0  0  0  0  0  0  0
   33.7744   39.1867   26.0994 O   0  0  0  0  0  0  0  0  0  0  0  0
   32.3078   40.7888   25.1399 C   0  0  0  0  0  0  0  0  0  0  0  0
   36.8797   34.4395   28.5568 Cl  0  0  0  0  0  0  0  0  0  0  0  0
   31.9373   40.9278   24.1291 H   0  0  0  0  0  0  0  0  0  0  0  0
   35.8100   32.7662   32.9761 H   0  0  0  0  0  0  0  0  0  0  0  0
   37.2957   33.7753   31.2776 H   0  0  0  0  0  0  0  0  0  0  0  0
   33.5040   32.1221   32.3692 H   0  0  0  0  0  0  0  0  0  0  0  0
   33.6943   35.5060   28.2422 H   0  0  0  0  0  0  0  0  0  0  0  0
   32.5721   33.2086   25.5191 H   0  0  0  0  0  0  0  0  0  0  0  0
   31.4093   34.2013   23.5557 H   0  0  0  0  0  0  0  0  0  0  0  0
   33.1520   37.1832   27.0149 H   0  0  0  0  0  0  0  0  0  0  0  0
   31.2226   38.7109   24.3879 H   0  0  0  0  0  0  0  0  0  0  0  0
   33.4332   41.7475   25.3935 C   0  0  0  0  0  0  0  0  0  0  0  0
   31.5304   41.0672   25.8515 H   0  0  0  0  0  0  0  0  0  0  0  0
   33.0996   42.7638   25.1838 H   0  0  0  0  0  0  0  0  0  0  0  0
   33.7444   41.6758   26.4357 H   0  0  0  0  0  0  0  0  0  0  0  0
   34.2744   41.5007   24.7459 H   0  0  0  0  0  0  0  0  0  0  0  0
  1  2  1  0  0  0  0
  1  6  2  0  0  0  0
  1 23  1  0  0  0  0
  2  3  2  0  0  0  0
  2 24  1  0  0  0  0
  3  4  1  0  0  0  0
  3 21  1  0  0  0  0
  4  5  2  0  0  0  0
  4  8  1  0  0  0  0
  5  6  1  0  0  0  0
  5  7  1  0  0  0  0
  6 25  1  0  0  0  0
  8  9  2  0  0  0  0
  8 10  1  0  0  0  0
 10 11  1  0  0  0  0
 10 26  1  0  0  0  0
 11 12  1  0  0  0  0
 11 16  2  0  0  0  0
 12 13  2  0  0  0  0
 12 27  1  0  0  0  0
 13 14  1  0  0  0  0
 13 28  1  0  0  0  0
 14 15  2  0  0  0  0
 15 16  1  0  0  0  0
 15 17  1  0  0  0  0
 16 29  1  0  0  0  0
 17 18  1  0  0  0  0
 17 30  1  0  0  0  0
 18 19  2  0  0  0  0
 18 20  1  0  0  0  0
 20 22  1  0  0  0  0
 20 31  1  0  0  0  0
 20 32  1  0  0  0  0
 31 33  1  0  0  0  0
 31 34  1  0  0  0  0
 31 35  1  0  0  0  0
M  END
>  <r_user_dG.exp>
-9.780000

$$$$
ejm_54
  PyMOL2.3          3D                             0

 37 38  0  0  0  0  0  0  0  0999 V2000
   35.4508   32.9244   31.9694 C   0  0  0  0  0  0  0  0  0  0  0  0
   36.2874   33.4921   31.0129 C   0  0  0  0  0  0  0  0  0  0  0  0
   35.8307   33.6967   29.7154 C   0  0  0  0  0  0  0  0  0  0  0  0
   34.5227   33.3215   29.3583 C   0  0  0  0  0  0  0  0  0  0  0  0
   33.6804   32.7590   30.3371 C   0  0  0  0  0  0  0  0  0  0  0  0
   34.1549   32.5621   31.6276 C   0  0  0  0  0  0  0  0  0  0  0  0
   32.0484   32.3095   29.9333 Cl  0  0  0  0  0  0  0  0  0  0  0  0
   33.9977   33.4969   27.9844 C   0  0  0  0  0  0  0  0  0  0  0  0
   33.9177   32.5202   27.2580 O   0  0  0  0  0  0  0  0  0  0  0  0
   33.5907   34.7253   27.6098 N   0  0  0  0  0  0  0  0  0  0  0  0
   33.0065   35.1315   26.4054 C   0  0  0  0  0  0  0  0  0  0  0  0
   32.4752   34.2796   25.4172 C   0  0  0  0  0  0  0  0  0  0  0  0
   31.8296   34.8397   24.3189 C   0  0  0  0  0  0  0  0  0  0  0  0
   31.7184   36.1588   24.1888 N   0  0  0  0  0  0  0  0  0  0  0  0
   32.2125   37.0028   25.0935 C   0  0  0  0  0  0  0  0  0  0  0  0
   32.8223   36.5008   26.2454 C   0  0  0  0  0  0  0  0  0  0  0  0
   32.0082   38.3774   24.9292 N   0  0  0  0  0  0  0  0  0  0  0  0
   32.7726   39.3831   25.4314 C   0  0  0  0  0  0  0  0  0  0  0  0
   33.7744   39.1867   26.0994 O   0  0  0  0  0  0  0  0  0  0  0  0
   36.8797   34.4395   28.5568 Cl  0  0  0  0  0  0  0  0  0  0  0  0
   35.8100   32.7662   32.9761 H   0  0  0  0  0  0  0  0  0  0  0  0
   37.2957   33.7753   31.2776 H   0  0  0  0  0  0  0  0  0  0  0  0
   33.5040   32.1221   32.3692 H   0  0  0  0  0  0  0  0  0  0  0  0
   33.6943   35.5060   28.2422 H   0  0  0  0  0  0  0  0  0  0  0  0
   32.5721   33.2086   25.5191 H   0  0  0  0  0  0  0  0  0  0  0  0
   31.4093   34.2013   23.5557 H   0  0  0  0  0  0  0  0  0  0  0  0
   33.1520   37.1832   27.0149 H   0  0  0  0  0  0  0  0  0  0  0  0
   31.2226   38.7109   24.3879 H   0  0  0  0  0  0  0  0  0  0  0  0
   33.3414   41.8453   25.3547 C   0  0  0  0  0  0  0  0  0  0  0  0
   33.0228   42.7683   24.8705 H   0  0  0  0  0  0  0  0  0  0  0  0
   33.4532   42.0170   26.4253 H   0  0  0  0  0  0  0  0  0  0  0  0
   34.6557   41.4075   24.7794 C   0  0  0  0  0  0  0  0  0  0  0  0
   32.3811   40.7684   25.1651 N   0  0  0  0  0  0  0  0  0  0  0  0
   31.4444   40.9768   24.8497 H   0  0  0  0  0  0  0  0  0  0  0  0
   34.9752   40.4844   25.2631 H   0  0  0  0  0  0  0  0  0  0  0  0
   34.5453   41.2366   23.7086 H   0  0  0  0  0  0  0  0  0  0  0  0
   35.4030   42.1829   24.9479 H   0  0  0  0  0  0  0  0  0  0  0  0
  1  2  1  0  0  0  0
  1  6  2  0  0  0  0
  1 21  1  0  0  0  0
  2  3  2  0  0  0  0
  2 22  1  0  0  0  0
  3  4  1  0  0  0  0
  3 20  1  0  0  0  0
  4  5  2  0  0  0  0
  4  8  1  0  0  0  0
  5  6  1  0  0  0  0
  5  7  1  0  0  0  0
  6 23  1  0  0  0  0
  8  9  2  0  0  0  0
  8 10  1  0  0  0  0
 10 11  1  0  0  0  0
 10 24  1  0  0  0  0
 11 12  1  0  0  0  0
 11 16  2  0  0  0  0
 12 13  2  0  0  0  0
 12 25  1  0  0  0  0
 13 14  1  0  0  0  0
 13 26  1  0  0  0  0
 14 15  2  0  0  0  0
 15 16  1  0  0  0  0
 15 17  1  0  0  0  0
 16 27  1  0  0  0  0
 17 18  1  0  0  0  0
 17 28  1  0  0  0  0
 18 19  2  0  0  0  0
 18 33  1  0  0  0  0
 29 30  1  0  0  0  0
 29 31  1  0  0  0  0
 29 32  1  0  0  0  0
 29 33  1  0  0  0  0
 32 35  1  0  0  0  0
 32 36  1  0  0  0  0
 32 37  1  0  0  0  0
 33 34  1  0  0  0  0
M  END
>  <r_user_dG.exp>
-10.530000

$$$$
