CAT-13f
  PyMOL2.3          3D                             0

 49 52  0  0  1  0  0  0  0  0999 V2000
   30.5568   31.3177   28.3172 C   0  0  0  0  0  0  0  0  0  0  0  0
   31.6932   30.9493   27.4676 N   0  0  0  0  0  0  0  0  0  0  0  0
   32.9964   30.9643   27.7971 C   0  0  0  0  0  0  0  0  0  0  0  0
   33.4980   31.3083   28.9920 N   0  0  0  0  0  0  0  0  0  0  0  0
   33.7695   30.5789   26.7740 N   0  3  0  0  0  0  0  0  0  0  0  0
   32.9783   30.2743   25.5747 C   0  0  1  0  0  0  0  0  0  0  0  0
   33.2474   31.2984   24.4491 C   0  0  0  0  0  0  0  0  0  0  0  0
   33.5448   30.8946   23.1259 C   0  0  0  0  0  0  0  0  0  0  0  0
   33.7128   31.8478   22.1130 C   0  0  0  0  0  0  0  0  0  0  0  0
   33.5231   33.2116   22.3869 C   0  0  0  0  0  0  0  0  0  0  0  0
   33.2265   33.6642   23.6890 C   0  0  0  0  0  0  0  0  0  0  0  0
   32.9359   35.0972   23.9454 C   0  0  0  0  0  0  0  0  0  0  0  0
   32.3167   35.8924   22.9511 C   0  0  0  0  0  0  0  0  0  0  0  0
   31.9385   37.2251   23.2073 C   0  0  0  0  0  0  0  0  0  0  0  0
   32.1872   37.7968   24.4652 C   0  0  0  0  0  0  0  0  0  0  0  0
   32.8384   37.0431   25.4538 C   0  0  0  0  0  0  0  0  0  0  0  0
   33.1657   37.7690   26.9837 Cl  0  0  0  0  0  0  0  0  0  0  0  0
   33.2077   35.7069   25.1932 C   0  0  0  0  0  0  0  0  0  0  0  0
   33.1396   32.6923   24.7148 C   0  0  0  0  0  0  0  0  0  0  0  0
   33.1071   28.7618   25.1706 C   0  0  0  0  0  0  0  0  0  0  0  0
   34.5182   28.2369   24.8733 C   0  0  0  0  0  0  0  0  0  0  0  0
   34.3681   26.7158   24.8237 C   0  0  0  0  0  0  0  0  0  0  0  0
   33.1998   26.3790   25.7561 C   0  0  0  0  0  0  0  0  0  0  0  0
   32.5932   27.7208   26.1872 C   0  0  0  0  0  0  0  0  0  0  0  0
   31.5614   30.5323   26.1125 C   0  0  0  0  0  0  0  0  0  0  0  0
   30.4858   30.3913   25.5205 O   0  0  0  0  0  0  0  0  0  0  0  0
   30.2930   32.3583   28.1320 H   0  0  0  0  0  0  0  0  0  0  0  0
   29.6832   30.7032   28.0990 H   0  0  0  0  0  0  0  0  0  0  0  0
   30.7999   31.1943   29.3716 H   0  0  0  0  0  0  0  0  0  0  0  0
   32.9384   31.6527   29.7703 H   0  0  0  0  0  0  0  0  0  0  0  0
   34.7875   30.6276   26.7769 H   0  0  0  0  0  0  0  0  0  0  0  0
   33.6318   29.8612   22.8324 H   0  0  0  0  0  0  0  0  0  0  0  0
   33.9498   31.5261   21.1087 H   0  0  0  0  0  0  0  0  0  0  0  0
   33.5888   33.9112   21.5690 H   0  0  0  0  0  0  0  0  0  0  0  0
   32.0759   35.4653   21.9886 H   0  0  0  0  0  0  0  0  0  0  0  0
   31.4304   37.8053   22.4514 H   0  0  0  0  0  0  0  0  0  0  0  0
   31.8789   38.8112   24.6748 H   0  0  0  0  0  0  0  0  0  0  0  0
   33.6999   35.1447   25.9685 H   0  0  0  0  0  0  0  0  0  0  0  0
   32.9029   33.0270   25.7136 H   0  0  0  0  0  0  0  0  0  0  0  0
   32.5052   28.6084   24.2737 H   0  0  0  0  0  0  0  0  0  0  0  0
   34.9282   28.6092   23.9402 H   0  0  0  0  0  0  0  0  0  0  0  0
   35.2070   28.5119   25.6739 H   0  0  0  0  0  0  0  0  0  0  0  0
   34.1144   26.4068   23.8086 H   0  0  0  0  0  0  0  0  0  0  0  0
   35.2896   26.2053   25.1070 H   0  0  0  0  0  0  0  0  0  0  0  0
   32.4634   25.7731   25.2251 H   0  0  0  0  0  0  0  0  0  0  0  0
   33.5289   25.8021   26.6217 H   0  0  0  0  0  0  0  0  0  0  0  0
   32.9453   27.9614   27.1917 H   0  0  0  0  0  0  0  0  0  0  0  0
   31.5039   27.6660   26.2226 H   0  0  0  0  0  0  0  0  0  0  0  0
   34.5124   31.3556   29.1103 H   0  0  0  0  0  0  0  0  0  0  0  0
  1  2  1  0  0  0  0
  1 27  1  0  0  0  0
  1 28  1  0  0  0  0
  1 29  1  0  0  0  0
  2  3  1  0  0  0  0
  2 25  1  0  0  0  0
  3  4  1  0  0  0  0
  3  5  2  0  0  0  0
  4 30  1  0  0  0  0
  4 49  1  0  0  0  0
  5  6  1  0  0  0  0
  5 31  1  0  0  0  0
  6  7  1  0  0  0  0
  6 20  1  0  0  0  0
  6 25  1  0  0  0  0
  7  8  2  0  0  0  0
  7 19  1  0  0  0  0
  8  9  1  0  0  0  0
  8 32  1  0  0  0  0
  9 10  2  0  0  0  0
  9 33  1  0  0  0  0
 10 11  1  0  0  0  0
 10 34  1  0  0  0  0
 11 12  1  0  0  0  0
 11 19  2  0  0  0  0
 12 13  2  0  0  0  0
 12 18  1  0  0  0  0
 13 14  1  0  0  0  0
 13 35  1  0  0  0  0
 14 15  2  0  0  0  0
 14 36  1  0  0  0  0
 15 16  1  0  0  0  0
 15 37  1  0  0  0  0
 16 17  1  0  0  0  0
 16 18  2  0  0  0  0
 18 38  1  0  0  0  0
 19 39  1  0  0  0  0
 20 21  1  0  0  0  0
 20 24  1  0  0  0  0
 20 40  1  0  0  0  0
 21 22  1  0  0  0  0
 21 41  1  0  0  0  0
 21 42  1  0  0  0  0
 22 23  1  0  0  0  0
 22 43  1  0  0  0  0
 22 44  1  0  0  0  0
 23 24  1  0  0  0  0
 23 45  1  0  0  0  0
 23 46  1  0  0  0  0
 24 47  1  0  0  0  0
 24 48  1  0  0  0  0
 25 26  2  0  0  0  0
M  END
>  <r_user_dG.exp>
-9.093000

$$$$
CAT-13d
  PyMOL2.3          3D                             0

 43 46  0  0  1  0  0  0  0  0999 V2000
   30.5501   30.9696   28.2724 C   0  0  0  0  0  0  0  0  0  0  0  0
   31.7698   30.7846   27.4752 N   0  0  0  0  0  0  0  0  0  0  0  0
   33.0240   31.0380   27.8764 C   0  0  0  0  0  0  0  0  0  0  0  0
   33.4060   31.4212   29.0999 N   0  0  0  0  0  0  0  0  0  0  0  0
   33.8996   30.8406   26.8932 N   0  3  0  0  0  0  0  0  0  0  0  0
   33.2820   30.3600   25.6664 C   0  0  1  0  0  0  0  0  0  0  0  0
   33.4374   31.3762   24.5202 C   0  0  0  0  0  0  0  0  0  0  0  0
   33.7834   30.9604   23.2127 C   0  0  0  0  0  0  0  0  0  0  0  0
   33.8520   31.8943   22.1684 C   0  0  0  0  0  0  0  0  0  0  0  0
   33.5527   33.2462   22.4091 C   0  0  0  0  0  0  0  0  0  0  0  0
   33.2322   33.7087   23.7031 C   0  0  0  0  0  0  0  0  0  0  0  0
   32.8892   35.1319   23.9430 C   0  0  0  0  0  0  0  0  0  0  0  0
   32.2388   35.8982   22.9467 C   0  0  0  0  0  0  0  0  0  0  0  0
   31.8333   37.2256   23.1925 C   0  0  0  0  0  0  0  0  0  0  0  0
   32.0834   37.8184   24.4412 C   0  0  0  0  0  0  0  0  0  0  0  0
   32.7602   37.0901   25.4324 C   0  0  0  0  0  0  0  0  0  0  0  0
   33.0829   37.8310   26.9565 Cl  0  0  0  0  0  0  0  0  0  0  0  0
   33.1598   35.7618   25.1811 C   0  0  0  0  0  0  0  0  0  0  0  0
   33.1982   32.7567   24.7493 C   0  0  0  0  0  0  0  0  0  0  0  0
   33.9332   29.0014   25.3533 C   0  0  0  0  0  0  0  0  0  0  0  0
   33.4764   28.0864   24.2332 C   0  0  0  0  0  0  0  0  0  0  0  0
   34.8369   28.7348   24.1691 C   0  0  0  0  0  0  0  0  0  0  0  0
   31.8076   30.3234   26.1221 C   0  0  0  0  0  0  0  0  0  0  0  0
   30.8105   29.9981   25.4698 O   0  0  0  0  0  0  0  0  0  0  0  0
   29.7195   30.3822   27.8804 H   0  0  0  0  0  0  0  0  0  0  0  0
   30.7175   30.6751   29.3083 H   0  0  0  0  0  0  0  0  0  0  0  0
   30.2621   32.0205   28.2561 H   0  0  0  0  0  0  0  0  0  0  0  0
   32.7710   31.6579   29.8594 H   0  0  0  0  0  0  0  0  0  0  0  0
   34.9088   30.9801   26.9764 H   0  0  0  0  0  0  0  0  0  0  0  0
   33.9885   29.9273   22.9724 H   0  0  0  0  0  0  0  0  0  0  0  0
   34.1127   31.5686   21.1706 H   0  0  0  0  0  0  0  0  0  0  0  0
   33.5683   33.9303   21.5753 H   0  0  0  0  0  0  0  0  0  0  0  0
   32.0017   35.4532   21.9915 H   0  0  0  0  0  0  0  0  0  0  0  0
   31.3052   37.7853   22.4346 H   0  0  0  0  0  0  0  0  0  0  0  0
   31.7554   38.8286   24.6417 H   0  0  0  0  0  0  0  0  0  0  0  0
   33.6764   35.2227   25.9572 H   0  0  0  0  0  0  0  0  0  0  0  0
   32.9273   33.0906   25.7391 H   0  0  0  0  0  0  0  0  0  0  0  0
   34.2109   28.4747   26.2628 H   0  0  0  0  0  0  0  0  0  0  0  0
   33.4457   27.0185   24.4413 H   0  0  0  0  0  0  0  0  0  0  0  0
   32.7226   28.4405   23.5329 H   0  0  0  0  0  0  0  0  0  0  0  0
   34.9676   29.5149   23.4286 H   0  0  0  0  0  0  0  0  0  0  0  0
   35.7099   28.1057   24.3350 H   0  0  0  0  0  0  0  0  0  0  0  0
   34.3990   31.5624   29.2873 H   0  0  0  0  0  0  0  0  0  0  0  0
  1  2  1  0  0  0  0
  1 25  1  0  0  0  0
  1 26  1  0  0  0  0
  1 27  1  0  0  0  0
  2  3  1  0  0  0  0
  2 23  1  0  0  0  0
  3  4  1  0  0  0  0
  3  5  2  0  0  0  0
  4 28  1  0  0  0  0
  4 43  1  0  0  0  0
  5  6  1  0  0  0  0
  5 29  1  0  0  0  0
  6  7  1  0  0  0  0
  6 20  1  0  0  0  0
  6 23  1  0  0  0  0
  7  8  2  0  0  0  0
  7 19  1  0  0  0  0
  8  9  1  0  0  0  0
  8 30  1  0  0  0  0
  9 10  2  0  0  0  0
  9 31  1  0  0  0  0
 10 11  1  0  0  0  0
 10 32  1  0  0  0  0
 11 12  1  0  0  0  0
 11 19  2  0  0  0  0
 12 13  2  0  0  0  0
 12 18  1  0  0  0  0
 13 14  1  0  0  0  0
 13 33  1  0  0  0  0
 14 15  2  0  0  0  0
 14 34  1  0  0  0  0
 15 16  1  0  0  0  0
 15 35  1  0  0  0  0
 16 18  2  0  0  0  0
 16 17  1  0  0  0  0
 18 36  1  0  0  0  0
 19 37  1  0  0  0  0
 20 21  1  0  0  0  0
 20 22  1  0  0  0  0
 20 38  1  0  0  0  0
 21 22  1  0  0  0  0
 21 39  1  0  0  0  0
 21 40  1  0  0  0  0
 22 41  1  0  0  0  0
 22 42  1  0  0  0  0
 23 24  2  0  0  0  0
M  END
>  <r_user_dG.exp>
-10.473000

$$$$
CAT-4c
  PyMOL2.3          3D                             0

 50 53  0  0  1  0  0  0  0  0999 V2000
   29.4229   38.2472   23.8082 C   0  0  0  0  0  0  0  0  0  0  0  0
   30.7460   38.2536   24.3383 O   0  0  0  0  0  0  0  0  0  0  0  0
   31.4688   37.1151   24.0925 C   0  0  0  0  0  0  0  0  0  0  0  0
   32.3337   36.6331   25.0922 C   0  0  0  0  0  0  0  0  0  0  0  0
   32.9633   35.3821   24.9385 C   0  0  0  0  0  0  0  0  0  0  0  0
   32.7587   34.6081   23.7747 C   0  0  0  0  0  0  0  0  0  0  0  0
   33.2235   33.2166   23.6638 C   0  0  0  0  0  0  0  0  0  0  0  0
   33.6235   32.6906   22.4232 C   0  0  0  0  0  0  0  0  0  0  0  0
   33.9166   31.3286   22.2778 C   0  0  0  0  0  0  0  0  0  0  0  0
   33.7738   30.4525   23.3675 C   0  0  0  0  0  0  0  0  0  0  0  0
   33.3723   30.9512   24.6305 C   0  0  0  0  0  0  0  0  0  0  0  0
   33.1530   30.0264   25.8378 C   0  0  1  0  0  0  0  0  0  0  0  0
   33.6013   28.5672   25.6049 C   0  0  0  0  0  0  0  0  0  0  0  0
   32.7304   27.5269   25.1969 C   0  0  0  0  0  0  0  0  0  0  0  0
   33.2105   26.2132   25.0202 C   0  0  0  0  0  0  0  0  0  0  0  0
   34.5723   25.9268   25.2192 C   0  0  0  0  0  0  0  0  0  0  0  0
   35.4549   26.9524   25.5743 C   0  0  0  0  0  0  0  0  0  0  0  0
   34.9639   28.2502   25.7816 C   0  0  0  0  0  0  0  0  0  0  0  0
   33.8403   30.5624   27.0134 N   0  3  0  0  0  0  0  0  0  0  0  0
   33.0062   30.8799   28.0010 C   0  0  0  0  0  0  0  0  0  0  0  0
   33.4441   31.3499   29.1724 N   0  0  0  0  0  0  0  0  0  0  0  0
   31.7280   30.6649   27.6592 N   0  0  0  0  0  0  0  0  0  0  0  0
   30.5428   30.9803   28.4669 C   0  0  0  0  0  0  0  0  0  0  0  0
   31.6916   30.1403   26.3320 C   0  0  0  0  0  0  0  0  0  0  0  0
   30.6488   29.8815   25.7199 O   0  0  0  0  0  0  0  0  0  0  0  0
   33.1465   32.3440   24.7682 C   0  0  0  0  0  0  0  0  0  0  0  0
   31.9845   35.1561   22.7312 C   0  0  0  0  0  0  0  0  0  0  0  0
   31.3362   36.3888   22.8912 C   0  0  0  0  0  0  0  0  0  0  0  0
   28.8333   39.0505   24.2450 H   0  0  0  0  0  0  0  0  0  0  0  0
   29.4193   38.4019   22.7291 H   0  0  0  0  0  0  0  0  0  0  0  0
   28.9061   37.3131   24.0332 H   0  0  0  0  0  0  0  0  0  0  0  0
   32.4565   37.1918   26.0084 H   0  0  0  0  0  0  0  0  0  0  0  0
   33.5689   34.9973   25.7436 H   0  0  0  0  0  0  0  0  0  0  0  0
   33.6716   33.3335   21.5595 H   0  0  0  0  0  0  0  0  0  0  0  0
   34.2180   30.9692   21.3078 H   0  0  0  0  0  0  0  0  0  0  0  0
   33.9707   29.4017   23.2052 H   0  0  0  0  0  0  0  0  0  0  0  0
   31.6837   27.7094   25.0221 H   0  0  0  0  0  0  0  0  0  0  0  0
   32.5321   25.4232   24.7326 H   0  0  0  0  0  0  0  0  0  0  0  0
   34.9574   24.9289   25.1177 H   0  0  0  0  0  0  0  0  0  0  0  0
   36.5073   26.7472   25.7141 H   0  0  0  0  0  0  0  0  0  0  0  0
   35.6532   29.0130   26.0957 H   0  0  0  0  0  0  0  0  0  0  0  0
   34.8481   30.7187   27.0352 H   0  0  0  0  0  0  0  0  0  0  0  0
   32.8427   31.6514   29.9373 H   0  0  0  0  0  0  0  0  0  0  0  0
   29.6868   30.3695   28.1788 H   0  0  0  0  0  0  0  0  0  0  0  0
   30.7378   30.8137   29.5259 H   0  0  0  0  0  0  0  0  0  0  0  0
   30.2765   32.0265   28.3216 H   0  0  0  0  0  0  0  0  0  0  0  0
   32.8259   32.7502   25.7170 H   0  0  0  0  0  0  0  0  0  0  0  0
   31.8097   34.5952   21.8239 H   0  0  0  0  0  0  0  0  0  0  0  0
   30.7009   36.7427   22.0957 H   0  0  0  0  0  0  0  0  0  0  0  0
   34.4460   31.4910   29.3093 H   0  0  0  0  0  0  0  0  0  0  0  0
  1  2  1  0  0  0  0
  1 29  1  0  0  0  0
  1 30  1  0  0  0  0
  1 31  1  0  0  0  0
  2  3  1  0  0  0  0
  3  4  2  0  0  0  0
  3 28  1  0  0  0  0
  4  5  1  0  0  0  0
  4 32  1  0  0  0  0
  5  6  2  0  0  0  0
  5 33  1  0  0  0  0
  6  7  1  0  0  0  0
  6 27  1  0  0  0  0
  7  8  2  0  0  0  0
  7 26  1  0  0  0  0
  8  9  1  0  0  0  0
  8 34  1  0  0  0  0
  9 10  2  0  0  0  0
  9 35  1  0  0  0  0
 10 11  1  0  0  0  0
 10 36  1  0  0  0  0
 11 12  1  0  0  0  0
 11 26  2  0  0  0  0
 12 13  1  0  0  0  0
 12 19  1  0  0  0  0
 12 24  1  0  0  0  0
 13 14  2  0  0  0  0
 13 18  1  0  0  0  0
 14 15  1  0  0  0  0
 14 37  1  0  0  0  0
 15 16  2  0  0  0  0
 15 38  1  0  0  0  0
 16 17  1  0  0  0  0
 16 39  1  0  0  0  0
 17 18  2  0  0  0  0
 17 40  1  0  0  0  0
 18 41  1  0  0  0  0
 19 20  2  0  0  0  0
 19 42  1  0  0  0  0
 20 21  1  0  0  0  0
 20 22  1  0  0  0  0
 21 43  1  0  0  0  0
 21 50  1  0  0  0  0
 22 23  1  0  0  0  0
 22 24  1  0  0  0  0
 23 44  1  0  0  0  0
 23 45  1  0  0  0  0
 23 46  1  0  0  0  0
 24 25  2  0  0  0  0
 26 47  1  0  0  0  0
 27 28  2  0  0  0  0
 27 48  1  0  0  0  0
 28 49  1  0  0  0  0
M  END
>  <r_user_dG.exp>
-7.853000

$$$$
CAT-13b
  PyMOL2.3          3D                             0

 42 44  0  0  1  0  0  0  0  0999 V2000
   33.0905   27.9735   24.5299 C   0  0  0  0  0  0  0  0  0  0  0  0
   33.8786   28.9490   25.4200 C   0  0  0  0  0  0  0  0  0  0  0  0
   33.2885   30.3717   25.6727 C   0  0  2  0  0  0  0  0  0  0  0  0
   33.4726   31.3866   24.5245 C   0  0  0  0  0  0  0  0  0  0  0  0
   33.8801   30.9903   23.2287 C   0  0  0  0  0  0  0  0  0  0  0  0
   33.9332   31.9246   22.1835 C   0  0  0  0  0  0  0  0  0  0  0  0
   33.5897   33.2664   22.4180 C   0  0  0  0  0  0  0  0  0  0  0  0
   33.2464   33.7200   23.7082 C   0  0  0  0  0  0  0  0  0  0  0  0
   32.8895   35.1391   23.9482 C   0  0  0  0  0  0  0  0  0  0  0  0
   32.2347   35.9006   22.9515 C   0  0  0  0  0  0  0  0  0  0  0  0
   31.8248   37.2270   23.1954 C   0  0  0  0  0  0  0  0  0  0  0  0
   32.0748   37.8228   24.4429 C   0  0  0  0  0  0  0  0  0  0  0  0
   32.7538   37.0980   25.4353 C   0  0  0  0  0  0  0  0  0  0  0  0
   33.0751   37.8418   26.9584 Cl  0  0  0  0  0  0  0  0  0  0  0  0
   33.1573   35.7706   25.1858 C   0  0  0  0  0  0  0  0  0  0  0  0
   33.2056   32.7635   24.7495 C   0  0  0  0  0  0  0  0  0  0  0  0
   33.9008   30.8624   26.8998 N   0  3  0  0  0  0  0  0  0  0  0  0
   33.0230   31.0713   27.8782 C   0  0  0  0  0  0  0  0  0  0  0  0
   33.4049   31.4476   29.1030 N   0  0  0  0  0  0  0  0  0  0  0  0
   31.7690   30.8300   27.4713 N   0  0  0  0  0  0  0  0  0  0  0  0
   30.5452   31.0333   28.2576 C   0  0  0  0  0  0  0  0  0  0  0  0
   31.8118   30.3606   26.1217 C   0  0  0  0  0  0  0  0  0  0  0  0
   30.8155   30.0442   25.4646 O   0  0  0  0  0  0  0  0  0  0  0  0
   32.8664   28.3960   23.5554 H   0  0  0  0  0  0  0  0  0  0  0  0
   33.6598   27.0595   24.3590 H   0  0  0  0  0  0  0  0  0  0  0  0
   32.1455   27.6795   24.9865 H   0  0  0  0  0  0  0  0  0  0  0  0
   34.8816   29.0589   25.0088 H   0  0  0  0  0  0  0  0  0  0  0  0
   34.0340   28.4483   26.3771 H   0  0  0  0  0  0  0  0  0  0  0  0
   34.1512   29.9751   22.9894 H   0  0  0  0  0  0  0  0  0  0  0  0
   34.2243   31.6073   21.1913 H   0  0  0  0  0  0  0  0  0  0  0  0
   33.6007   33.9527   21.5864 H   0  0  0  0  0  0  0  0  0  0  0  0
   32.0002   35.4527   21.9968 H   0  0  0  0  0  0  0  0  0  0  0  0
   31.2951   37.7839   22.4366 H   0  0  0  0  0  0  0  0  0  0  0  0
   31.7448   38.8327   24.6416 H   0  0  0  0  0  0  0  0  0  0  0  0
   33.6764   35.2334   25.9617 H   0  0  0  0  0  0  0  0  0  0  0  0
   32.9074   33.0926   25.7330 H   0  0  0  0  0  0  0  0  0  0  0  0
   34.9105   30.9974   26.9880 H   0  0  0  0  0  0  0  0  0  0  0  0
   32.7698   31.6858   29.8617 H   0  0  0  0  0  0  0  0  0  0  0  0
   30.7076   30.7670   29.3019 H   0  0  0  0  0  0  0  0  0  0  0  0
   30.2551   32.0826   28.2109 H   0  0  0  0  0  0  0  0  0  0  0  0
   29.7185   30.4332   27.8768 H   0  0  0  0  0  0  0  0  0  0  0  0
   34.3983   31.5801   29.2933 H   0  0  0  0  0  0  0  0  0  0  0  0
  1  2  1  0  0  0  0
  1 24  1  0  0  0  0
  1 25  1  0  0  0  0
  1 26  1  0  0  0  0
  2  3  1  0  0  0  0
  2 27  1  0  0  0  0
  2 28  1  0  0  0  0
  3  4  1  0  0  0  0
  3 17  1  0  0  0  0
  3 22  1  0  0  0  0
  4  5  2  0  0  0  0
  4 16  1  0  0  0  0
  5  6  1  0  0  0  0
  5 29  1  0  0  0  0
  6  7  2  0  0  0  0
  6 30  1  0  0  0  0
  7  8  1  0  0  0  0
  7 31  1  0  0  0  0
  8  9  1  0  0  0  0
  8 16  2  0  0  0  0
  9 10  2  0  0  0  0
  9 15  1  0  0  0  0
 10 11  1  0  0  0  0
 10 32  1  0  0  0  0
 11 12  2  0  0  0  0
 11 33  1  0  0  0  0
 12 13  1  0  0  0  0
 12 34  1  0  0  0  0
 13 14  1  0  0  0  0
 13 15  2  0  0  0  0
 15 35  1  0  0  0  0
 16 36  1  0  0  0  0
 17 18  2  0  0  0  0
 17 37  1  0  0  0  0
 18 19  1  0  0  0  0
 18 20  1  0  0  0  0
 19 38  1  0  0  0  0
 19 42  1  0  0  0  0
 20 21  1  0  0  0  0
 20 22  1  0  0  0  0
 21 39  1  0  0  0  0
 21 40  1  0  0  0  0
 21 41  1  0  0  0  0
 22 23  2  0  0  0  0
M  END
>  <r_user_dG.exp>
-9.123000

$$$$
CAT-4l
  PyMOL2.3          3D                             0

 44 47  0  0  1  0  0  0  0  0999 V2000
   30.5275   30.9997   28.4911 C   0  0  0  0  0  0  0  0  0  0  0  0
   31.7071   30.7493   27.6526 N   0  0  0  0  0  0  0  0  0  0  0  0
   32.9892   30.9570   27.9851 C   0  0  0  0  0  0  0  0  0  0  0  0
   33.4431   31.3655   29.1731 N   0  0  0  0  0  0  0  0  0  0  0  0
   33.8094   30.7004   26.9682 N   0  3  0  0  0  0  0  0  0  0  0  0
   33.1090   30.1968   25.7848 C   0  0  2  0  0  0  0  0  0  0  0  0
   33.5525   28.7364   25.5296 C   0  0  0  0  0  0  0  0  0  0  0  0
   32.6690   27.7078   25.1224 C   0  0  0  0  0  0  0  0  0  0  0  0
   33.1224   26.3829   24.9609 C   0  0  0  0  0  0  0  0  0  0  0  0
   34.4735   26.0659   25.1744 C   0  0  0  0  0  0  0  0  0  0  0  0
   35.3702   27.0755   25.5439 C   0  0  0  0  0  0  0  0  0  0  0  0
   34.9044   28.3869   25.7345 C   0  0  0  0  0  0  0  0  0  0  0  0
   33.2937   31.1589   24.5952 C   0  0  0  0  0  0  0  0  0  0  0  0
   33.5546   30.6931   23.2857 C   0  0  0  0  0  0  0  0  0  0  0  0
   33.6581   31.6079   22.2213 C   0  0  0  0  0  0  0  0  0  0  0  0
   33.4880   32.9875   22.4463 C   0  0  0  0  0  0  0  0  0  0  0  0
   33.2570   33.4938   23.7435 C   0  0  0  0  0  0  0  0  0  0  0  0
   33.0786   34.9469   23.9976 C   0  0  0  0  0  0  0  0  0  0  0  0
   33.3499   35.5383   25.2575 C   0  0  0  0  0  0  0  0  0  0  0  0
   33.1061   36.8381   25.5388 N   0  0  0  0  0  0  0  0  0  0  0  0
   32.5765   37.5657   24.5333 C   0  0  0  0  0  0  0  0  0  0  0  0
   32.3344   37.0082   23.2599 C   0  0  0  0  0  0  0  0  0  0  0  0
   32.5851   35.7049   22.9847 N   0  0  0  0  0  0  0  0  0  0  0  0
   33.1770   32.5582   24.8019 C   0  0  0  0  0  0  0  0  0  0  0  0
   31.6545   30.2954   26.3011 C   0  0  0  0  0  0  0  0  0  0  0  0
   30.6042   30.0700   25.6883 O   0  0  0  0  0  0  0  0  0  0  0  0
   29.7160   30.3131   28.2481 H   0  0  0  0  0  0  0  0  0  0  0  0
   30.7648   30.8812   29.5478 H   0  0  0  0  0  0  0  0  0  0  0  0
   30.1727   32.0163   28.3251 H   0  0  0  0  0  0  0  0  0  0  0  0
   34.4471   31.4951   29.3069 H   0  0  0  0  0  0  0  0  0  0  0  0
   34.8215   30.8238   26.9955 H   0  0  0  0  0  0  0  0  0  0  0  0
   31.6267   27.9076   24.9506 H   0  0  0  0  0  0  0  0  0  0  0  0
   32.4317   25.6024   24.6799 H   0  0  0  0  0  0  0  0  0  0  0  0
   34.8269   25.0544   25.0738 H   0  0  0  0  0  0  0  0  0  0  0  0
   36.4146   26.8476   25.7072 H   0  0  0  0  0  0  0  0  0  0  0  0
   35.6052   29.1298   26.0675 H   0  0  0  0  0  0  0  0  0  0  0  0
   33.6697   29.6387   23.0722 H   0  0  0  0  0  0  0  0  0  0  0  0
   33.8544   31.2541   21.2184 H   0  0  0  0  0  0  0  0  0  0  0  0
   33.5323   33.6665   21.6069 H   0  0  0  0  0  0  0  0  0  0  0  0
   33.7758   34.9593   26.0568 H   0  0  0  0  0  0  0  0  0  0  0  0
   32.3496   38.6006   24.7426 H   0  0  0  0  0  0  0  0  0  0  0  0
   31.9158   37.6178   22.4755 H   0  0  0  0  0  0  0  0  0  0  0  0
   32.9744   32.9253   25.7963 H   0  0  0  0  0  0  0  0  0  0  0  0
   32.8502   31.6431   29.9537 H   0  0  0  0  0  0  0  0  0  0  0  0
  1  2  1  0  0  0  0
  1 27  1  0  0  0  0
  1 28  1  0  0  0  0
  1 29  1  0  0  0  0
  2  3  1  0  0  0  0
  2 25  1  0  0  0  0
  3  4  1  0  0  0  0
  3  5  2  0  0  0  0
  4 30  1  0  0  0  0
  4 44  1  0  0  0  0
  5  6  1  0  0  0  0
  5 31  1  0  0  0  0
  6  7  1  0  0  0  0
  6 13  1  0  0  0  0
  6 25  1  0  0  0  0
  7  8  2  0  0  0  0
  7 12  1  0  0  0  0
  8  9  1  0  0  0  0
  8 32  1  0  0  0  0
  9 10  2  0  0  0  0
  9 33  1  0  0  0  0
 10 11  1  0  0  0  0
 10 34  1  0  0  0  0
 11 12  2  0  0  0  0
 11 35  1  0  0  0  0
 12 36  1  0  0  0  0
 13 14  2  0  0  0  0
 13 24  1  0  0  0  0
 14 15  1  0  0  0  0
 14 37  1  0  0  0  0
 15 16  2  0  0  0  0
 15 38  1  0  0  0  0
 16 17  1  0  0  0  0
 16 39  1  0  0  0  0
 17 18  1  0  0  0  0
 17 24  2  0  0  0  0
 18 19  2  0  0  0  0
 18 23  1  0  0  0  0
 19 20  1  0  0  0  0
 19 40  1  0  0  0  0
 20 21  2  0  0  0  0
 21 22  1  0  0  0  0
 21 41  1  0  0  0  0
 22 23  2  0  0  0  0
 22 42  1  0  0  0  0
 24 43  1  0  0  0  0
 25 26  2  0  0  0  0
M  END
>  <r_user_dG.exp>
-9.343000

$$$$
CAT-13m
  PyMOL2.3          3D                             0

 44 47  0  0  1  0  0  0  0  0999 V2000
   30.5378   31.2569   28.3820 C   0  0  0  0  0  0  0  0  0  0  0  0
   31.6983   30.9769   27.5293 N   0  0  0  0  0  0  0  0  0  0  0  0
   32.9965   31.0555   27.8636 C   0  0  0  0  0  0  0  0  0  0  0  0
   33.4807   31.3990   29.0635 N   0  0  0  0  0  0  0  0  0  0  0  0
   33.7898   30.7165   26.8411 N   0  3  0  0  0  0  0  0  0  0  0  0
   33.0293   30.3102   25.6560 C   0  0  2  0  0  0  0  0  0  0  0  0
   33.2510   28.7935   25.4064 C   0  0  0  0  0  0  0  0  0  0  0  0
   34.2830   28.2848   24.6021 C   0  0  0  0  0  0  0  0  0  0  0  0
   34.5049   26.9676   24.4435 N   0  0  0  0  0  0  0  0  0  0  0  0
   33.7099   26.1449   25.1064 C   0  0  0  0  0  0  0  0  0  0  0  0
   32.7397   26.4938   25.9339 N   0  0  0  0  0  0  0  0  0  0  0  0
   32.5010   27.8020   26.0686 C   0  0  0  0  0  0  0  0  0  0  0  0
   33.2436   31.2985   24.4842 C   0  0  0  0  0  0  0  0  0  0  0  0
   33.4029   30.8736   23.1442 C   0  0  0  0  0  0  0  0  0  0  0  0
   33.5617   31.8132   22.1157 C   0  0  0  0  0  0  0  0  0  0  0  0
   33.4514   33.1878   22.3849 C   0  0  0  0  0  0  0  0  0  0  0  0
   33.2243   33.6601   23.6944 C   0  0  0  0  0  0  0  0  0  0  0  0
   32.9334   35.0965   23.9465 C   0  0  0  0  0  0  0  0  0  0  0  0
   32.2766   35.8766   22.9630 C   0  0  0  0  0  0  0  0  0  0  0  0
   31.8741   37.2019   23.2227 C   0  0  0  0  0  0  0  0  0  0  0  0
   32.1368   37.7848   24.4730 C   0  0  0  0  0  0  0  0  0  0  0  0
   32.8256   37.0480   25.4493 C   0  0  0  0  0  0  0  0  0  0  0  0
   33.1615   37.7819   26.9744 Cl  0  0  0  0  0  0  0  0  0  0  0  0
   33.2185   35.7193   25.1853 C   0  0  0  0  0  0  0  0  0  0  0  0
   33.1892   32.6997   24.7344 C   0  0  0  0  0  0  0  0  0  0  0  0
   31.5977   30.5441   26.1757 C   0  0  0  0  0  0  0  0  0  0  0  0
   30.5378   30.3085   25.5876 O   0  0  0  0  0  0  0  0  0  0  0  0
   29.7366   30.5397   28.2045 H   0  0  0  0  0  0  0  0  0  0  0  0
   30.8056   31.2016   29.4371 H   0  0  0  0  0  0  0  0  0  0  0  0
   30.1539   32.2529   28.1622 H   0  0  0  0  0  0  0  0  0  0  0  0
   34.4930   31.4578   29.1949 H   0  0  0  0  0  0  0  0  0  0  0  0
   34.8074   30.8009   26.8567 H   0  0  0  0  0  0  0  0  0  0  0  0
   34.9486   28.9401   24.0731 H   0  0  0  0  0  0  0  0  0  0  0  0
   33.9089   25.0916   25.0159 H   0  0  0  0  0  0  0  0  0  0  0  0
   31.7142   28.0316   26.7700 H   0  0  0  0  0  0  0  0  0  0  0  0
   33.3922   29.8372   22.8476 H   0  0  0  0  0  0  0  0  0  0  0  0
   33.7242   31.4743   21.1030 H   0  0  0  0  0  0  0  0  0  0  0  0
   33.5039   33.8770   21.5550 H   0  0  0  0  0  0  0  0  0  0  0  0
   32.0176   35.4419   22.0080 H   0  0  0  0  0  0  0  0  0  0  0  0
   31.3328   37.7637   22.4754 H   0  0  0  0  0  0  0  0  0  0  0  0
   31.8060   38.7901   24.6855 H   0  0  0  0  0  0  0  0  0  0  0  0
   33.7325   35.1735   25.9590 H   0  0  0  0  0  0  0  0  0  0  0  0
   33.0207   33.0514   25.7407 H   0  0  0  0  0  0  0  0  0  0  0  0
   32.9111   31.7138   29.8483 H   0  0  0  0  0  0  0  0  0  0  0  0
  1  2  1  0  0  0  0
  1 28  1  0  0  0  0
  1 29  1  0  0  0  0
  1 30  1  0  0  0  0
  2  3  1  0  0  0  0
  2 26  1  0  0  0  0
  3  4  1  0  0  0  0
  3  5  2  0  0  0  0
  4 31  1  0  0  0  0
  4 44  1  0  0  0  0
  5  6  1  0  0  0  0
  5 32  1  0  0  0  0
  6  7  1  0  0  0  0
  6 13  1  0  0  0  0
  6 26  1  0  0  0  0
  7  8  2  0  0  0  0
  7 12  1  0  0  0  0
  8  9  1  0  0  0  0
  8 33  1  0  0  0  0
  9 10  2  0  0  0  0
 10 11  1  0  0  0  0
 10 34  1  0  0  0  0
 11 12  2  0  0  0  0
 12 35  1  0  0  0  0
 13 14  2  0  0  0  0
 13 25  1  0  0  0  0
 14 15  1  0  0  0  0
 14 36  1  0  0  0  0
 15 16  2  0  0  0  0
 15 37  1  0  0  0  0
 16 17  1  0  0  0  0
 16 38  1  0  0  0  0
 17 18  1  0  0  0  0
 17 25  2  0  0  0  0
 18 19  2  0  0  0  0
 18 24  1  0  0  0  0
 19 20  1  0  0  0  0
 19 39  1  0  0  0  0
 20 21  2  0  0  0  0
 20 40  1  0  0  0  0
 21 22  1  0  0  0  0
 21 41  1  0  0  0  0
 22 23  1  0  0  0  0
 22 24  2  0  0  0  0
 24 42  1  0  0  0  0
 25 43  1  0  0  0  0
 26 27  2  0  0  0  0
M  END
>  <r_user_dG.exp>
-8.763000

$$$$
CAT-4k
  PyMOL2.3          3D                             0

 45 48  0  0  1  0  0  0  0  0999 V2000
   30.5302   30.9865   28.5062 C   0  0  0  0  0  0  0  0  0  0  0  0
   31.7044   30.7218   27.6647 N   0  0  0  0  0  0  0  0  0  0  0  0
   32.9881   30.9380   27.9859 C   0  0  0  0  0  0  0  0  0  0  0  0
   33.4474   31.3677   29.1647 N   0  0  0  0  0  0  0  0  0  0  0  0
   33.8031   30.6655   26.9687 N   0  3  0  0  0  0  0  0  0  0  0  0
   33.0953   30.1417   25.7979 C   0  0  2  0  0  0  0  0  0  0  0  0
   33.5447   28.6820   25.5553 C   0  0  0  0  0  0  0  0  0  0  0  0
   32.6651   27.6435   25.1642 C   0  0  0  0  0  0  0  0  0  0  0  0
   33.1294   26.3224   25.0035 C   0  0  0  0  0  0  0  0  0  0  0  0
   34.4866   26.0209   25.2035 C   0  0  0  0  0  0  0  0  0  0  0  0
   35.3792   27.0413   25.5530 C   0  0  0  0  0  0  0  0  0  0  0  0
   34.9035   28.3491   25.7416 C   0  0  0  0  0  0  0  0  0  0  0  0
   33.2722   31.0833   24.5929 C   0  0  0  0  0  0  0  0  0  0  0  0
   33.5538   30.5976   23.2945 C   0  0  0  0  0  0  0  0  0  0  0  0
   33.6742   31.4959   22.2188 C   0  0  0  0  0  0  0  0  0  0  0  0
   33.5047   32.8775   22.4219 C   0  0  0  0  0  0  0  0  0  0  0  0
   33.2462   33.4015   23.7050 C   0  0  0  0  0  0  0  0  0  0  0  0
   33.0660   34.8572   23.9279 C   0  0  0  0  0  0  0  0  0  0  0  0
   33.3306   35.4420   25.1816 C   0  0  0  0  0  0  0  0  0  0  0  0
   33.1001   36.8094   25.3876 C   0  0  0  0  0  0  0  0  0  0  0  0
   32.6339   37.6224   24.4282 N   0  0  0  0  0  0  0  0  0  0  0  0
   32.3978   37.0858   23.2186 C   0  0  0  0  0  0  0  0  0  0  0  0
   32.5964   35.7253   22.9210 C   0  0  0  0  0  0  0  0  0  0  0  0
   33.1405   32.4839   24.7753 C   0  0  0  0  0  0  0  0  0  0  0  0
   31.6441   30.2428   26.3221 C   0  0  0  0  0  0  0  0  0  0  0  0
   30.5907   30.0003   25.7211 O   0  0  0  0  0  0  0  0  0  0  0  0
   30.1842   32.0054   28.3358 H   0  0  0  0  0  0  0  0  0  0  0  0
   29.7115   30.3062   28.2705 H   0  0  0  0  0  0  0  0  0  0  0  0
   30.7710   30.8717   29.5626 H   0  0  0  0  0  0  0  0  0  0  0  0
   34.4522   31.4984   29.2922 H   0  0  0  0  0  0  0  0  0  0  0  0
   34.8143   30.7977   26.9862 H   0  0  0  0  0  0  0  0  0  0  0  0
   31.6191   27.8332   25.0004 H   0  0  0  0  0  0  0  0  0  0  0  0
   32.4423   25.5350   24.7317 H   0  0  0  0  0  0  0  0  0  0  0  0
   34.8511   25.0133   25.1074 H   0  0  0  0  0  0  0  0  0  0  0  0
   36.4278   26.8247   25.7029 H   0  0  0  0  0  0  0  0  0  0  0  0
   35.6019   29.1030   26.0564 H   0  0  0  0  0  0  0  0  0  0  0  0
   33.6782   29.5409   23.0987 H   0  0  0  0  0  0  0  0  0  0  0  0
   33.8904   31.1311   21.2247 H   0  0  0  0  0  0  0  0  0  0  0  0
   33.5791   33.5395   21.5739 H   0  0  0  0  0  0  0  0  0  0  0  0
   33.7208   34.8552   25.9924 H   0  0  0  0  0  0  0  0  0  0  0  0
   33.2970   37.2607   26.3492 H   0  0  0  0  0  0  0  0  0  0  0  0
   32.0207   37.7694   22.4745 H   0  0  0  0  0  0  0  0  0  0  0  0
   32.3570   35.3572   21.9347 H   0  0  0  0  0  0  0  0  0  0  0  0
   32.9164   32.8680   25.7589 H   0  0  0  0  0  0  0  0  0  0  0  0
   32.8584   31.6511   29.9459 H   0  0  0  0  0  0  0  0  0  0  0  0
  1  2  1  0  0  0  0
  1 27  1  0  0  0  0
  1 28  1  0  0  0  0
  1 29  1  0  0  0  0
  2  3  1  0  0  0  0
  2 25  1  0  0  0  0
  3  4  1  0  0  0  0
  3  5  2  0  0  0  0
  4 30  1  0  0  0  0
  4 45  1  0  0  0  0
  5  6  1  0  0  0  0
  5 31  1  0  0  0  0
  6  7  1  0  0  0  0
  6 13  1  0  0  0  0
  6 25  1  0  0  0  0
  7  8  2  0  0  0  0
  7 12  1  0  0  0  0
  8  9  1  0  0  0  0
  8 32  1  0  0  0  0
  9 10  2  0  0  0  0
  9 33  1  0  0  0  0
 10 11  1  0  0  0  0
 10 34  1  0  0  0  0
 11 12  2  0  0  0  0
 11 35  1  0  0  0  0
 12 36  1  0  0  0  0
 13 14  2  0  0  0  0
 13 24  1  0  0  0  0
 14 15  1  0  0  0  0
 14 37  1  0  0  0  0
 15 16  2  0  0  0  0
 15 38  1  0  0  0  0
 16 17  1  0  0  0  0
 16 39  1  0  0  0  0
 17 18  1  0  0  0  0
 17 24  2  0  0  0  0
 18 19  2  0  0  0  0
 18 23  1  0  0  0  0
 19 20  1  0  0  0  0
 19 40  1  0  0  0  0
 20 21  2  0  0  0  0
 20 41  1  0  0  0  0
 21 22  1  0  0  0  0
 22 23  2  0  0  0  0
 22 42  1  0  0  0  0
 23 43  1  0  0  0  0
 24 44  1  0  0  0  0
 25 26  2  0  0  0  0
M  END
>  <r_user_dG.exp>
-7.853000

$$$$
CAT-13n
  PyMOL2.3          3D                             0

 44 47  0  0  1  0  0  0  0  0999 V2000
   30.5184   31.1981   28.3811 C   0  0  0  0  0  0  0  0  0  0  0  0
   31.6962   30.9625   27.5375 N   0  0  0  0  0  0  0  0  0  0  0  0
   32.9871   31.0859   27.8890 C   0  0  0  0  0  0  0  0  0  0  0  0
   33.4485   31.3880   29.1081 N   0  0  0  0  0  0  0  0  0  0  0  0
   33.8051   30.8700   26.8586 N   0  3  0  0  0  0  0  0  0  0  0  0
   33.0816   30.4337   25.6678 C   0  0  1  0  0  0  0  0  0  0  0  0
   33.2896   31.4151   24.4818 C   0  0  0  0  0  0  0  0  0  0  0  0
   33.4872   30.9921   23.1442 C   0  0  0  0  0  0  0  0  0  0  0  0
   33.6126   31.9282   22.1104 C   0  0  0  0  0  0  0  0  0  0  0  0
   33.4511   33.2984   22.3704 C   0  0  0  0  0  0  0  0  0  0  0  0
   33.2158   33.7688   23.6793 C   0  0  0  0  0  0  0  0  0  0  0  0
   32.9187   35.1987   23.9404 C   0  0  0  0  0  0  0  0  0  0  0  0
   32.2626   35.9838   22.9628 C   0  0  0  0  0  0  0  0  0  0  0  0
   31.8709   37.3105   23.2291 C   0  0  0  0  0  0  0  0  0  0  0  0
   32.1366   37.8830   24.4840 C   0  0  0  0  0  0  0  0  0  0  0  0
   32.8178   37.1363   25.4582 C   0  0  0  0  0  0  0  0  0  0  0  0
   33.1500   37.8488   26.9937 Cl  0  0  0  0  0  0  0  0  0  0  0  0
   33.2071   35.8096   25.1845 C   0  0  0  0  0  0  0  0  0  0  0  0
   33.1895   32.8136   24.7221 C   0  0  0  0  0  0  0  0  0  0  0  0
   33.3999   28.9237   25.4979 C   0  0  0  0  0  0  0  0  0  0  0  0
   32.8479   28.0699   26.3697 N   0  0  0  0  0  0  0  0  0  0  0  0
   33.1710   26.7696   26.2772 C   0  0  0  0  0  0  0  0  0  0  0  0
   34.0848   26.3115   25.3289 C   0  0  0  0  0  0  0  0  0  0  0  0
   34.6525   27.2796   24.5008 C   0  0  0  0  0  0  0  0  0  0  0  0
   34.3270   28.5696   24.6140 N   0  0  0  0  0  0  0  0  0  0  0  0
   31.6290   30.6113   26.1573 C   0  0  0  0  0  0  0  0  0  0  0  0
   30.5739   30.5127   25.5139 O   0  0  0  0  0  0  0  0  0  0  0  0
   29.7135   30.5036   28.1339 H   0  0  0  0  0  0  0  0  0  0  0  0
   30.7594   31.0743   29.4372 H   0  0  0  0  0  0  0  0  0  0  0  0
   30.1527   32.2128   28.2180 H   0  0  0  0  0  0  0  0  0  0  0  0
   34.4560   31.4759   29.2518 H   0  0  0  0  0  0  0  0  0  0  0  0
   34.8236   30.8890   26.8999 H   0  0  0  0  0  0  0  0  0  0  0  0
   33.5448   29.9544   22.8554 H   0  0  0  0  0  0  0  0  0  0  0  0
   33.7987   31.5814   21.1047 H   0  0  0  0  0  0  0  0  0  0  0  0
   33.4868   33.9833   21.5372 H   0  0  0  0  0  0  0  0  0  0  0  0
   32.0038   35.5526   22.0073 H   0  0  0  0  0  0  0  0  0  0  0  0
   31.3403   37.8827   22.4823 H   0  0  0  0  0  0  0  0  0  0  0  0
   31.8171   38.8921   24.7023 H   0  0  0  0  0  0  0  0  0  0  0  0
   33.7188   35.2566   25.9540 H   0  0  0  0  0  0  0  0  0  0  0  0
   33.0006   33.1629   25.7252 H   0  0  0  0  0  0  0  0  0  0  0  0
   32.6946   26.0912   26.9698 H   0  0  0  0  0  0  0  0  0  0  0  0
   34.3374   25.2659   25.2499 H   0  0  0  0  0  0  0  0  0  0  0  0
   35.3815   27.0250   23.7488 H   0  0  0  0  0  0  0  0  0  0  0  0
   32.8604   31.6540   29.8960 H   0  0  0  0  0  0  0  0  0  0  0  0
  1  2  1  0  0  0  0
  1 28  1  0  0  0  0
  1 29  1  0  0  0  0
  1 30  1  0  0  0  0
  2  3  1  0  0  0  0
  2 26  1  0  0  0  0
  3  4  1  0  0  0  0
  3  5  2  0  0  0  0
  4 31  1  0  0  0  0
  4 44  1  0  0  0  0
  5  6  1  0  0  0  0
  5 32  1  0  0  0  0
  6  7  1  0  0  0  0
  6 20  1  0  0  0  0
  6 26  1  0  0  0  0
  7  8  2  0  0  0  0
  7 19  1  0  0  0  0
  8  9  1  0  0  0  0
  8 33  1  0  0  0  0
  9 10  2  0  0  0  0
  9 34  1  0  0  0  0
 10 11  1  0  0  0  0
 10 35  1  0  0  0  0
 11 12  1  0  0  0  0
 11 19  2  0  0  0  0
 12 13  2  0  0  0  0
 12 18  1  0  0  0  0
 13 14  1  0  0  0  0
 13 36  1  0  0  0  0
 14 15  2  0  0  0  0
 14 37  1  0  0  0  0
 15 16  1  0  0  0  0
 15 38  1  0  0  0  0
 16 17  1  0  0  0  0
 16 18  2  0  0  0  0
 18 39  1  0  0  0  0
 19 40  1  0  0  0  0
 20 21  2  0  0  0  0
 20 25  1  0  0  0  0
 21 22  1  0  0  0  0
 22 23  2  0  0  0  0
 22 41  1  0  0  0  0
 23 24  1  0  0  0  0
 23 42  1  0  0  0  0
 24 25  2  0  0  0  0
 24 43  1  0  0  0  0
 26 27  2  0  0  0  0
M  END
>  <r_user_dG.exp>
-8.543000

$$$$
CAT-13o
  PyMOL2.3          3D                             0

 42 45  0  0  1  0  0  0  0  0999 V2000
   30.5261   31.2394   28.3328 C   0  0  0  0  0  0  0  0  0  0  0  0
   31.6941   30.9259   27.5016 N   0  0  0  0  0  0  0  0  0  0  0  0
   32.9882   31.0228   27.8524 C   0  0  0  0  0  0  0  0  0  0  0  0
   33.4548   31.3677   29.0604 N   0  0  0  0  0  0  0  0  0  0  0  0
   33.8006   30.7313   26.8331 N   0  3  0  0  0  0  0  0  0  0  0  0
   33.0605   30.3137   25.6413 C   0  0  1  0  0  0  0  0  0  0  0  0
   33.2883   31.2892   24.4612 C   0  0  0  0  0  0  0  0  0  0  0  0
   33.4672   30.8641   23.1241 C   0  0  0  0  0  0  0  0  0  0  0  0
   33.6100   31.8032   22.0939 C   0  0  0  0  0  0  0  0  0  0  0  0
   33.4787   33.1758   22.3604 C   0  0  0  0  0  0  0  0  0  0  0  0
   33.2528   33.6494   23.6695 C   0  0  0  0  0  0  0  0  0  0  0  0
   32.9692   35.0854   23.9267 C   0  0  0  0  0  0  0  0  0  0  0  0
   32.3418   35.8806   22.9372 C   0  0  0  0  0  0  0  0  0  0  0  0
   31.9599   37.2118   23.1968 C   0  0  0  0  0  0  0  0  0  0  0  0
   32.2123   37.7836   24.4536 C   0  0  0  0  0  0  0  0  0  0  0  0
   32.8691   37.0307   25.4384 C   0  0  0  0  0  0  0  0  0  0  0  0
   33.1961   37.7537   26.9698 Cl  0  0  0  0  0  0  0  0  0  0  0  0
   33.2415   35.6960   25.1751 C   0  0  0  0  0  0  0  0  0  0  0  0
   33.2179   32.6899   24.7090 C   0  0  0  0  0  0  0  0  0  0  0  0
   33.2666   28.8048   25.4760 C   0  0  0  0  0  0  0  0  0  0  0  0
   32.7211   27.9060   26.3199 N   0  0  0  0  0  0  0  0  0  0  0  0
   33.1387   26.5903   26.1130 C   0  0  0  0  0  0  0  0  0  0  0  0
   34.0666   26.4754   25.1155 C   0  0  0  0  0  0  0  0  0  0  0  0
   34.4241   28.0178   24.3873 S   0  0  0  0  0  0  0  0  0  0  0  0
   31.6146   30.5236   26.1353 C   0  0  0  0  0  0  0  0  0  0  0  0
   30.5584   30.4088   25.4994 O   0  0  0  0  0  0  0  0  0  0  0  0
   29.6632   30.6315   28.0491 H   0  0  0  0  0  0  0  0  0  0  0  0
   30.7357   31.0571   29.3891 H   0  0  0  0  0  0  0  0  0  0  0  0
   30.2611   32.2905   28.2006 H   0  0  0  0  0  0  0  0  0  0  0  0
   34.4636   31.4435   29.2030 H   0  0  0  0  0  0  0  0  0  0  0  0
   34.8183   30.7811   26.8673 H   0  0  0  0  0  0  0  0  0  0  0  0
   33.4795   29.8288   22.8294 H   0  0  0  0  0  0  0  0  0  0  0  0
   33.7776   31.4627   21.0824 H   0  0  0  0  0  0  0  0  0  0  0  0
   33.5218   33.8626   21.5295 H   0  0  0  0  0  0  0  0  0  0  0  0
   32.0942   35.4559   21.9756 H   0  0  0  0  0  0  0  0  0  0  0  0
   31.4453   37.7910   22.4446 H   0  0  0  0  0  0  0  0  0  0  0  0
   31.9012   38.7968   24.6653 H   0  0  0  0  0  0  0  0  0  0  0  0
   33.7319   35.1382   25.9543 H   0  0  0  0  0  0  0  0  0  0  0  0
   33.0389   33.0396   25.7148 H   0  0  0  0  0  0  0  0  0  0  0  0
   32.7399   25.7995   26.7355 H   0  0  0  0  0  0  0  0  0  0  0  0
   34.5499   25.5753   24.7710 H   0  0  0  0  0  0  0  0  0  0  0  0
   32.8694   31.6610   29.8407 H   0  0  0  0  0  0  0  0  0  0  0  0
  1  2  1  0  0  0  0
  1 27  1  0  0  0  0
  1 28  1  0  0  0  0
  1 29  1  0  0  0  0
  2  3  1  0  0  0  0
  2 25  1  0  0  0  0
  3  4  1  0  0  0  0
  3  5  2  0  0  0  0
  4 30  1  0  0  0  0
  4 42  1  0  0  0  0
  5  6  1  0  0  0  0
  5 31  1  0  0  0  0
  6  7  1  0  0  0  0
  6 20  1  0  0  0  0
  6 25  1  0  0  0  0
  7  8  2  0  0  0  0
  7 19  1  0  0  0  0
  8  9  1  0  0  0  0
  8 32  1  0  0  0  0
  9 10  2  0  0  0  0
  9 33  1  0  0  0  0
 10 11  1  0  0  0  0
 10 34  1  0  0  0  0
 11 12  1  0  0  0  0
 11 19  2  0  0  0  0
 12 13  2  0  0  0  0
 12 18  1  0  0  0  0
 13 14  1  0  0  0  0
 13 35  1  0  0  0  0
 14 15  2  0  0  0  0
 14 36  1  0  0  0  0
 15 16  1  0  0  0  0
 15 37  1  0  0  0  0
 16 17  1  0  0  0  0
 16 18  2  0  0  0  0
 18 38  1  0  0  0  0
 19 39  1  0  0  0  0
 20 21  2  0  0  0  0
 20 24  1  0  0  0  0
 21 22  1  0  0  0  0
 22 23  2  0  0  0  0
 22 40  1  0  0  0  0
 23 24  1  0  0  0  0
 23 41  1  0  0  0  0
 25 26  2  0  0  0  0
M  END
>  <r_user_dG.exp>
-8.543000

$$$$
CAT-13a
  PyMOL2.3          3D                             0

 39 41  0  0  1  0  0  0  0  0999 V2000
   30.5552   31.2014   28.2763 C   0  0  0  0  0  0  0  0  0  0  0  0
   31.7410   30.9123   27.4598 N   0  0  0  0  0  0  0  0  0  0  0  0
   33.0252   31.0369   27.8328 C   0  0  0  0  0  0  0  0  0  0  0  0
   33.4647   31.3933   29.0466 N   0  0  0  0  0  0  0  0  0  0  0  0
   33.8584   30.7380   26.8319 N   0  3  0  0  0  0  0  0  0  0  0  0
   33.1505   30.3722   25.6069 C   0  0  2  0  0  0  0  0  0  0  0  0
   33.4900   28.9160   25.2212 C   0  0  0  0  0  0  0  0  0  0  0  0
   33.3711   31.3966   24.4805 C   0  0  0  0  0  0  0  0  0  0  0  0
   33.7580   30.9920   23.1809 C   0  0  0  0  0  0  0  0  0  0  0  0
   33.8603   31.9366   22.1492 C   0  0  0  0  0  0  0  0  0  0  0  0
   33.5577   33.2870   22.3952 C   0  0  0  0  0  0  0  0  0  0  0  0
   33.2151   33.7388   23.6868 C   0  0  0  0  0  0  0  0  0  0  0  0
   32.8751   35.1599   23.9352 C   0  0  0  0  0  0  0  0  0  0  0  0
   32.2232   35.9306   22.9441 C   0  0  0  0  0  0  0  0  0  0  0  0
   31.8201   37.2572   23.1966 C   0  0  0  0  0  0  0  0  0  0  0  0
   32.0740   37.8434   24.4479 C   0  0  0  0  0  0  0  0  0  0  0  0
   32.7514   37.1094   25.4348 C   0  0  0  0  0  0  0  0  0  0  0  0
   33.0774   37.8421   26.9622 Cl  0  0  0  0  0  0  0  0  0  0  0  0
   33.1484   35.7817   25.1765 C   0  0  0  0  0  0  0  0  0  0  0  0
   33.1507   32.7777   24.7218 C   0  0  0  0  0  0  0  0  0  0  0  0
   31.6990   30.4633   26.1050 C   0  0  0  0  0  0  0  0  0  0  0  0
   30.6643   30.2061   25.4817 O   0  0  0  0  0  0  0  0  0  0  0  0
   30.2614   32.2409   28.1315 H   0  0  0  0  0  0  0  0  0  0  0  0
   29.7142   30.5672   27.9946 H   0  0  0  0  0  0  0  0  0  0  0  0
   30.7607   31.0419   29.3345 H   0  0  0  0  0  0  0  0  0  0  0  0
   34.4705   31.4776   29.2038 H   0  0  0  0  0  0  0  0  0  0  0  0
   34.8743   30.8327   26.8806 H   0  0  0  0  0  0  0  0  0  0  0  0
   34.5200   28.8272   24.8736 H   0  0  0  0  0  0  0  0  0  0  0  0
   33.3827   28.2424   26.0721 H   0  0  0  0  0  0  0  0  0  0  0  0
   32.8327   28.5448   24.4327 H   0  0  0  0  0  0  0  0  0  0  0  0
   33.9646   29.9617   22.9313 H   0  0  0  0  0  0  0  0  0  0  0  0
   34.1447   31.6184   21.1556 H   0  0  0  0  0  0  0  0  0  0  0  0
   33.5889   33.9794   21.5692 H   0  0  0  0  0  0  0  0  0  0  0  0
   31.9842   35.4879   21.9883 H   0  0  0  0  0  0  0  0  0  0  0  0
   31.2920   37.8210   22.4416 H   0  0  0  0  0  0  0  0  0  0  0  0
   31.7485   38.8534   24.6538 H   0  0  0  0  0  0  0  0  0  0  0  0
   33.6646   35.2359   25.9486 H   0  0  0  0  0  0  0  0  0  0  0  0
   32.8619   33.1055   25.7088 H   0  0  0  0  0  0  0  0  0  0  0  0
   32.8645   31.6858   29.8152 H   0  0  0  0  0  0  0  0  0  0  0  0
  1  2  1  0  0  0  0
  1 23  1  0  0  0  0
  1 24  1  0  0  0  0
  1 25  1  0  0  0  0
  2  3  1  0  0  0  0
  2 21  1  0  0  0  0
  3  4  1  0  0  0  0
  3  5  2  0  0  0  0
  4 26  1  0  0  0  0
  4 39  1  0  0  0  0
  5  6  1  0  0  0  0
  5 27  1  0  0  0  0
  6  7  1  0  0  0  0
  6  8  1  0  0  0  0
  6 21  1  0  0  0  0
  7 28  1  0  0  0  0
  7 29  1  0  0  0  0
  7 30  1  0  0  0  0
  8  9  2  0  0  0  0
  8 20  1  0  0  0  0
  9 10  1  0  0  0  0
  9 31  1  0  0  0  0
 10 11  2  0  0  0  0
 10 32  1  0  0  0  0
 11 12  1  0  0  0  0
 11 33  1  0  0  0  0
 12 13  1  0  0  0  0
 12 20  2  0  0  0  0
 13 14  2  0  0  0  0
 13 19  1  0  0  0  0
 14 15  1  0  0  0  0
 14 34  1  0  0  0  0
 15 16  2  0  0  0  0
 15 35  1  0  0  0  0
 16 17  1  0  0  0  0
 16 36  1  0  0  0  0
 17 18  1  0  0  0  0
 17 19  2  0  0  0  0
 19 37  1  0  0  0  0
 20 38  1  0  0  0  0
 21 22  2  0  0  0  0
M  END
>  <i_m_stars>
2

>  <r_user_dG.exp>
-8.843000

$$$$
CAT-13k
  PyMOL2.3          3D                             0

 45 48  0  0  1  0  0  0  0  0999 V2000
   30.5354   31.0969   28.4465 C   0  0  0  0  0  0  0  0  0  0  0  0
   31.7265   30.8349   27.6290 N   0  0  0  0  0  0  0  0  0  0  0  0
   33.0067   31.0094   27.9849 C   0  0  0  0  0  0  0  0  0  0  0  0
   33.4500   31.3928   29.1836 N   0  0  0  0  0  0  0  0  0  0  0  0
   33.8392   30.7396   26.9806 N   0  3  0  0  0  0  0  0  0  0  0  0
   33.1507   30.2613   25.7827 C   0  0  2  0  0  0  0  0  0  0  0  0
   33.5361   28.7852   25.5204 C   0  0  0  0  0  0  0  0  0  0  0  0
   32.6142   27.7974   25.1110 C   0  0  0  0  0  0  0  0  0  0  0  0
   33.0332   26.4623   24.9896 C   0  0  0  0  0  0  0  0  0  0  0  0
   34.3727   26.1497   25.2403 C   0  0  0  0  0  0  0  0  0  0  0  0
   35.2713   27.0755   25.6004 N   0  0  0  0  0  0  0  0  0  0  0  0
   34.8584   28.3515   25.7356 C   0  0  0  0  0  0  0  0  0  0  0  0
   33.3725   31.2280   24.6046 C   0  0  0  0  0  0  0  0  0  0  0  0
   33.7339   30.7655   23.3182 C   0  0  0  0  0  0  0  0  0  0  0  0
   33.8510   31.6752   22.2522 C   0  0  0  0  0  0  0  0  0  0  0  0
   33.5909   33.0434   22.4531 C   0  0  0  0  0  0  0  0  0  0  0  0
   33.2626   33.5500   23.7280 C   0  0  0  0  0  0  0  0  0  0  0  0
   32.9487   34.9873   23.9333 C   0  0  0  0  0  0  0  0  0  0  0  0
   32.3304   35.7513   22.9144 C   0  0  0  0  0  0  0  0  0  0  0  0
   31.9315   37.0851   23.1414 C   0  0  0  0  0  0  0  0  0  0  0  0
   32.1672   37.6918   24.3851 C   0  0  0  0  0  0  0  0  0  0  0  0
   32.8214   36.9703   25.3944 C   0  0  0  0  0  0  0  0  0  0  0  0
   33.1312   37.7328   26.9103 Cl  0  0  0  0  0  0  0  0  0  0  0  0
   33.2061   35.6331   25.1668 C   0  0  0  0  0  0  0  0  0  0  0  0
   33.1807   32.6235   24.7932 C   0  0  0  0  0  0  0  0  0  0  0  0
   31.6904   30.3919   26.2753 C   0  0  0  0  0  0  0  0  0  0  0  0
   30.6496   30.1721   25.6464 O   0  0  0  0  0  0  0  0  0  0  0  0
   30.1853   32.1119   28.2613 H   0  0  0  0  0  0  0  0  0  0  0  0
   29.7265   30.4090   28.1993 H   0  0  0  0  0  0  0  0  0  0  0  0
   30.7562   30.9906   29.5080 H   0  0  0  0  0  0  0  0  0  0  0  0
   34.4540   31.5081   29.3298 H   0  0  0  0  0  0  0  0  0  0  0  0
   34.8508   30.8745   27.0194 H   0  0  0  0  0  0  0  0  0  0  0  0
   31.5824   28.0301   24.9315 H   0  0  0  0  0  0  0  0  0  0  0  0
   32.3421   25.6826   24.7104 H   0  0  0  0  0  0  0  0  0  0  0  0
   34.7339   25.1369   25.1644 H   0  0  0  0  0  0  0  0  0  0  0  0
   35.6011   29.0435   26.0848 H   0  0  0  0  0  0  0  0  0  0  0  0
   33.9109   29.7175   23.1195 H   0  0  0  0  0  0  0  0  0  0  0  0
   34.1176   31.3241   21.2643 H   0  0  0  0  0  0  0  0  0  0  0  0
   33.6384   33.7082   21.6052 H   0  0  0  0  0  0  0  0  0  0  0  0
   32.1059   35.2993   21.9588 H   0  0  0  0  0  0  0  0  0  0  0  0
   31.4128   37.6435   22.3773 H   0  0  0  0  0  0  0  0  0  0  0  0
   31.8432   38.7067   24.5683 H   0  0  0  0  0  0  0  0  0  0  0  0
   33.7014   35.0988   25.9593 H   0  0  0  0  0  0  0  0  0  0  0  0
   32.9027   32.9931   25.7685 H   0  0  0  0  0  0  0  0  0  0  0  0
   32.8522   31.6764   29.9582 H   0  0  0  0  0  0  0  0  0  0  0  0
  1  2  1  0  0  0  0
  1 28  1  0  0  0  0
  1 29  1  0  0  0  0
  1 30  1  0  0  0  0
  2  3  1  0  0  0  0
  2 26  1  0  0  0  0
  3  4  1  0  0  0  0
  3  5  2  0  0  0  0
  4 31  1  0  0  0  0
  4 45  1  0  0  0  0
  5  6  1  0  0  0  0
  5 32  1  0  0  0  0
  6  7  1  0  0  0  0
  6 13  1  0  0  0  0
  6 26  1  0  0  0  0
  7  8  2  0  0  0  0
  7 12  1  0  0  0  0
  8  9  1  0  0  0  0
  8 33  1  0  0  0  0
  9 10  2  0  0  0  0
  9 34  1  0  0  0  0
 10 11  1  0  0  0  0
 10 35  1  0  0  0  0
 11 12  2  0  0  0  0
 12 36  1  0  0  0  0
 13 14  2  0  0  0  0
 13 25  1  0  0  0  0
 14 15  1  0  0  0  0
 14 37  1  0  0  0  0
 15 16  2  0  0  0  0
 15 38  1  0  0  0  0
 16 17  1  0  0  0  0
 16 39  1  0  0  0  0
 17 18  1  0  0  0  0
 17 25  2  0  0  0  0
 18 19  2  0  0  0  0
 18 24  1  0  0  0  0
 19 20  1  0  0  0  0
 19 40  1  0  0  0  0
 20 21  2  0  0  0  0
 20 41  1  0  0  0  0
 21 22  1  0  0  0  0
 21 42  1  0  0  0  0
 22 23  1  0  0  0  0
 22 24  2  0  0  0  0
 24 43  1  0  0  0  0
 25 44  1  0  0  0  0
 26 27  2  0  0  0  0
M  END
>  <r_user_dG.exp>
-9.703000

$$$$
CAT-17a
  PyMOL2.3          3D                             0

 43 46  0  0  1  0  0  0  0  0999 V2000
   30.5924   30.7387   28.5727 C   0  0  0  0  0  0  0  0  0  0  0  0
   31.7221   30.7450   27.6372 N   0  0  0  0  0  0  0  0  0  0  0  0
   33.0060   30.9807   27.9480 C   0  0  0  0  0  0  0  0  0  0  0  0
   33.4753   31.3144   29.1540 N   0  0  0  0  0  0  0  0  0  0  0  0
   33.8098   30.8164   26.8963 N   0  3  0  0  0  0  0  0  0  0  0  0
   33.0850   30.3321   25.7264 C   0  0  1  0  0  0  0  0  0  0  0  0
   33.2349   31.3317   24.5419 C   0  0  0  0  0  0  0  0  0  0  0  0
   33.6084   30.9705   23.2233 C   0  0  0  0  0  0  0  0  0  0  0  0
   33.6730   31.9351   22.2060 C   0  0  0  0  0  0  0  0  0  0  0  0
   33.3356   33.2730   22.4661 C   0  0  0  0  0  0  0  0  0  0  0  0
   32.9747   33.6860   23.7635 C   0  0  0  0  0  0  0  0  0  0  0  0
   32.5595   35.0858   24.0271 C   0  0  0  0  0  0  0  0  0  0  0  0
   32.9473   35.7750   25.2006 C   0  0  0  0  0  0  0  0  0  0  0  0
   32.4945   37.0872   25.4637 C   0  0  0  0  0  0  0  0  0  0  0  0
   32.9706   37.9073   26.9044 Cl  0  0  0  0  0  0  0  0  0  0  0  0
   31.6404   37.7321   24.5550 C   0  0  0  0  0  0  0  0  0  0  0  0
   31.2511   37.0690   23.3804 C   0  0  0  0  0  0  0  0  0  0  0  0
   30.1810   37.8453   22.2773 Cl  0  0  0  0  0  0  0  0  0  0  0  0
   31.7153   35.7637   23.1164 C   0  0  0  0  0  0  0  0  0  0  0  0
   32.9584   32.7088   24.7854 C   0  0  0  0  0  0  0  0  0  0  0  0
   33.4382   28.8289   25.6056 C   0  0  0  0  0  0  0  0  0  0  0  0
   33.0515   27.9412   24.4504 C   0  0  0  0  0  0  0  0  0  0  0  0
   34.5051   28.1874   24.7518 C   0  0  0  0  0  0  0  0  0  0  0  0
   31.6429   30.3845   26.2612 C   0  0  0  0  0  0  0  0  0  0  0  0
   30.5949   30.1131   25.6637 O   0  0  0  0  0  0  0  0  0  0  0  0
   30.5673   29.7931   29.1129 H   0  0  0  0  0  0  0  0  0  0  0  0
   30.7149   31.5300   29.3014 H   0  0  0  0  0  0  0  0  0  0  0  0
   29.6380   30.8785   28.0657 H   0  0  0  0  0  0  0  0  0  0  0  0
   32.8876   31.5666   29.9467 H   0  0  0  0  0  0  0  0  0  0  0  0
   34.8235   30.9343   26.9098 H   0  0  0  0  0  0  0  0  0  0  0  0
   33.8490   29.9707   22.9188 H   0  0  0  0  0  0  0  0  0  0  0  0
   33.9670   31.6346   21.2097 H   0  0  0  0  0  0  0  0  0  0  0  0
   33.3544   33.9794   21.6486 H   0  0  0  0  0  0  0  0  0  0  0  0
   33.5971   35.2961   25.9158 H   0  0  0  0  0  0  0  0  0  0  0  0
   31.2774   38.7313   24.7589 H   0  0  0  0  0  0  0  0  0  0  0  0
   31.3820   35.2645   22.2182 H   0  0  0  0  0  0  0  0  0  0  0  0
   32.6630   33.0264   25.7731 H   0  0  0  0  0  0  0  0  0  0  0  0
   33.3198   28.3270   26.5671 H   0  0  0  0  0  0  0  0  0  0  0  0
   32.6280   26.9659   24.6892 H   0  0  0  0  0  0  0  0  0  0  0  0
   32.6414   28.4175   23.5742 H   0  0  0  0  0  0  0  0  0  0  0  0
   35.0431   28.7830   24.0398 H   0  0  0  0  0  0  0  0  0  0  0  0
   35.0833   27.3800   25.1972 H   0  0  0  0  0  0  0  0  0  0  0  0
   34.4798   31.4582   29.2737 H   0  0  0  0  0  0  0  0  0  0  0  0
  1  2  1  0  0  0  0
  1 26  1  0  0  0  0
  1 27  1  0  0  0  0
  1 28  1  0  0  0  0
  2  3  1  0  0  0  0
  2 24  1  0  0  0  0
  3  4  1  0  0  0  0
  3  5  2  0  0  0  0
  4 29  1  0  0  0  0
  4 43  1  0  0  0  0
  5  6  1  0  0  0  0
  5 30  1  0  0  0  0
  6  7  1  0  0  0  0
  6 21  1  0  0  0  0
  6 24  1  0  0  0  0
  7  8  2  0  0  0  0
  7 20  1  0  0  0  0
  8  9  1  0  0  0  0
  8 31  1  0  0  0  0
  9 10  2  0  0  0  0
  9 32  1  0  0  0  0
 10 11  1  0  0  0  0
 10 33  1  0  0  0  0
 11 12  1  0  0  0  0
 11 20  2  0  0  0  0
 12 13  2  0  0  0  0
 12 19  1  0  0  0  0
 13 14  1  0  0  0  0
 13 34  1  0  0  0  0
 14 15  1  0  0  0  0
 14 16  2  0  0  0  0
 16 17  1  0  0  0  0
 16 35  1  0  0  0  0
 17 18  1  0  0  0  0
 17 19  2  0  0  0  0
 19 36  1  0  0  0  0
 20 37  1  0  0  0  0
 21 22  1  0  0  0  0
 21 23  1  0  0  0  0
 21 38  1  0  0  0  0
 22 23  1  0  0  0  0
 22 39  1  0  0  0  0
 22 40  1  0  0  0  0
 23 41  1  0  0  0  0
 23 42  1  0  0  0  0
 24 25  2  0  0  0  0
M  END
>  <r_user_dG.exp>
-10.733000

$$$$
CAT-17f
  PyMOL2.3          3D                             0

 43 46  0  0  1  0  0  0  0  0999 V2000
   30.5626   30.9305   28.3014 C   0  0  0  0  0  0  0  0  0  0  0  0
   31.7784   30.7220   27.5040 N   0  0  0  0  0  0  0  0  0  0  0  0
   33.0345   30.9805   27.8956 C   0  0  0  0  0  0  0  0  0  0  0  0
   33.4190   31.3980   29.1069 N   0  0  0  0  0  0  0  0  0  0  0  0
   33.9076   30.7537   26.9160 N   0  3  0  0  0  0  0  0  0  0  0  0
   33.2835   30.2553   25.6990 C   0  0  1  0  0  0  0  0  0  0  0  0
   33.4405   31.2548   24.5374 C   0  0  0  0  0  0  0  0  0  0  0  0
   33.7900   30.8173   23.2377 C   0  0  0  0  0  0  0  0  0  0  0  0
   33.8678   31.7339   22.1793 C   0  0  0  0  0  0  0  0  0  0  0  0
   33.5739   33.0887   22.3978 C   0  0  0  0  0  0  0  0  0  0  0  0
   33.2449   33.5736   23.6814 C   0  0  0  0  0  0  0  0  0  0  0  0
   32.9053   35.0031   23.8843 C   0  0  0  0  0  0  0  0  0  0  0  0
   32.3353   35.7782   22.8484 C   0  0  0  0  0  0  0  0  0  0  0  0
   31.9473   37.0623   22.9831 N   0  0  0  0  0  0  0  0  0  0  0  0
   32.1187   37.6561   24.1775 C   0  0  0  0  0  0  0  0  0  0  0  0
   32.7041   37.0050   25.2720 C   0  0  0  0  0  0  0  0  0  0  0  0
   32.8823   37.7115   26.5252 C   0  0  0  0  0  0  0  0  0  0  0  0
   33.0262   38.2767   27.5226 N   0  0  0  0  0  0  0  0  0  0  0  0
   33.1068   35.6648   25.1171 C   0  0  0  0  0  0  0  0  0  0  0  0
   33.2032   32.6395   24.7445 C   0  0  0  0  0  0  0  0  0  0  0  0
   33.9251   28.8876   25.4035 C   0  0  0  0  0  0  0  0  0  0  0  0
   33.5684   27.6118   26.1425 C   0  0  0  0  0  0  0  0  0  0  0  0
   33.2303   27.7543   24.6794 C   0  0  0  0  0  0  0  0  0  0  0  0
   31.8103   30.2335   26.1603 C   0  0  0  0  0  0  0  0  0  0  0  0
   30.8093   29.9039   25.5168 O   0  0  0  0  0  0  0  0  0  0  0  0
   30.7268   30.6374   29.3382 H   0  0  0  0  0  0  0  0  0  0  0  0
   30.2915   31.9858   28.2816 H   0  0  0  0  0  0  0  0  0  0  0  0
   29.7218   30.3550   27.9133 H   0  0  0  0  0  0  0  0  0  0  0  0
   32.7862   31.6466   29.8647 H   0  0  0  0  0  0  0  0  0  0  0  0
   34.9162   30.9027   26.9899 H   0  0  0  0  0  0  0  0  0  0  0  0
   33.9932   29.7802   23.0138 H   0  0  0  0  0  0  0  0  0  0  0  0
   34.1313   31.3963   21.1861 H   0  0  0  0  0  0  0  0  0  0  0  0
   33.5990   33.7528   21.5488 H   0  0  0  0  0  0  0  0  0  0  0  0
   32.1402   35.3463   21.8790 H   0  0  0  0  0  0  0  0  0  0  0  0
   31.7808   38.6799   24.2540 H   0  0  0  0  0  0  0  0  0  0  0  0
   33.5744   35.1481   25.9388 H   0  0  0  0  0  0  0  0  0  0  0  0
   32.9313   32.9845   25.7309 H   0  0  0  0  0  0  0  0  0  0  0  0
   34.9855   28.9844   25.1819 H   0  0  0  0  0  0  0  0  0  0  0  0
   34.3833   26.9373   26.3986 H   0  0  0  0  0  0  0  0  0  0  0  0
   32.7398   27.6198   26.8477 H   0  0  0  0  0  0  0  0  0  0  0  0
   32.1808   27.8619   24.4306 H   0  0  0  0  0  0  0  0  0  0  0  0
   33.8168   27.1817   23.9627 H   0  0  0  0  0  0  0  0  0  0  0  0
   34.4126   31.5445   29.2884 H   0  0  0  0  0  0  0  0  0  0  0  0
  1  2  1  0  0  0  0
  1 26  1  0  0  0  0
  1 27  1  0  0  0  0
  1 28  1  0  0  0  0
  2  3  1  0  0  0  0
  2 24  1  0  0  0  0
  3  4  1  0  0  0  0
  3  5  2  0  0  0  0
  4 29  1  0  0  0  0
  4 43  1  0  0  0  0
  5  6  1  0  0  0  0
  5 30  1  0  0  0  0
  6  7  1  0  0  0  0
  6 21  1  0  0  0  0
  6 24  1  0  0  0  0
  7  8  2  0  0  0  0
  7 20  1  0  0  0  0
  8  9  1  0  0  0  0
  8 31  1  0  0  0  0
  9 10  2  0  0  0  0
  9 32  1  0  0  0  0
 10 11  1  0  0  0  0
 10 33  1  0  0  0  0
 11 12  1  0  0  0  0
 11 20  2  0  0  0  0
 12 13  2  0  0  0  0
 12 19  1  0  0  0  0
 13 14  1  0  0  0  0
 13 34  1  0  0  0  0
 14 15  2  0  0  0  0
 15 16  1  0  0  0  0
 15 35  1  0  0  0  0
 16 17  1  0  0  0  0
 16 19  2  0  0  0  0
 17 18  3  0  0  0  0
 19 36  1  0  0  0  0
 20 37  1  0  0  0  0
 21 22  1  0  0  0  0
 21 23  1  0  0  0  0
 21 38  1  0  0  0  0
 22 23  1  0  0  0  0
 22 39  1  0  0  0  0
 22 40  1  0  0  0  0
 23 41  1  0  0  0  0
 23 42  1  0  0  0  0
 24 25  2  0  0  0  0
M  END
>  <r_user_dG.exp>
-9.423000

$$$$
CAT-13i
  PyMOL2.3          3D                             0

 46 49  0  0  1  0  0  0  0  0999 V2000
   30.4976   30.9747   28.3873 C   0  0  0  0  0  0  0  0  0  0  0  0
   31.7264   30.8567   27.5919 N   0  0  0  0  0  0  0  0  0  0  0  0
   32.9718   31.1448   27.9932 C   0  0  0  0  0  0  0  0  0  0  0  0
   33.3518   31.4872   29.2212 N   0  0  0  0  0  0  0  0  0  0  0  0
   33.8543   31.0178   27.0098 N   0  3  0  0  0  0  0  0  0  0  0  0
   33.2675   30.4560   25.8067 C   0  0  2  0  0  0  0  0  0  0  0  0
   33.9003   29.0413   25.6930 C   0  0  0  0  0  0  0  0  0  0  0  0
   33.2678   28.0606   24.7302 C   0  0  0  0  0  0  0  0  0  0  0  0
   34.1233   27.4462   23.6595 C   0  0  0  0  0  0  0  0  0  0  0  0
   33.6099   26.5843   24.7757 C   0  0  0  0  0  0  0  0  0  0  0  0
   33.4472   31.4123   24.6111 C   0  0  0  0  0  0  0  0  0  0  0  0
   33.8473   30.9696   23.3292 C   0  0  0  0  0  0  0  0  0  0  0  0
   33.9134   31.8725   22.2546 C   0  0  0  0  0  0  0  0  0  0  0  0
   33.5818   33.2257   22.4457 C   0  0  0  0  0  0  0  0  0  0  0  0
   33.2312   33.7184   23.7197 C   0  0  0  0  0  0  0  0  0  0  0  0
   32.8774   35.1423   23.9330 C   0  0  0  0  0  0  0  0  0  0  0  0
   32.2249   35.8904   22.9255 C   0  0  0  0  0  0  0  0  0  0  0  0
   31.8049   37.2163   23.1580 C   0  0  0  0  0  0  0  0  0  0  0  0
   32.0443   37.8246   24.4018 C   0  0  0  0  0  0  0  0  0  0  0  0
   32.7245   37.1133   25.4030 C   0  0  0  0  0  0  0  0  0  0  0  0
   33.0299   37.8662   26.9251 Cl  0  0  0  0  0  0  0  0  0  0  0  0
   33.1391   35.7880   25.1650 C   0  0  0  0  0  0  0  0  0  0  0  0
   33.1777   32.7935   24.7859 C   0  0  0  0  0  0  0  0  0  0  0  0
   31.7864   30.4161   26.2368 C   0  0  0  0  0  0  0  0  0  0  0  0
   30.8021   30.0835   25.5694 O   0  0  0  0  0  0  0  0  0  0  0  0
   30.6931   30.7661   29.4389 H   0  0  0  0  0  0  0  0  0  0  0  0
   30.1061   31.9882   28.3031 H   0  0  0  0  0  0  0  0  0  0  0  0
   29.7296   30.2831   28.0399 H   0  0  0  0  0  0  0  0  0  0  0  0
   32.7159   31.6870   29.9903 H   0  0  0  0  0  0  0  0  0  0  0  0
   34.8626   31.1506   27.1068 H   0  0  0  0  0  0  0  0  0  0  0  0
   33.8814   28.5634   26.6742 H   0  0  0  0  0  0  0  0  0  0  0  0
   34.9591   29.1438   25.4535 H   0  0  0  0  0  0  0  0  0  0  0  0
   32.2372   28.2709   24.4636 H   0  0  0  0  0  0  0  0  0  0  0  0
   33.6441   27.4442   22.6899 H   0  0  0  0  0  0  0  0  0  0  0  0
   35.1885   27.6570   23.6561 H   0  0  0  0  0  0  0  0  0  0  0  0
   34.3288   26.2486   25.5209 H   0  0  0  0  0  0  0  0  0  0  0  0
   32.8241   25.8713   24.5340 H   0  0  0  0  0  0  0  0  0  0  0  0
   34.0969   29.9429   23.1273 H   0  0  0  0  0  0  0  0  0  0  0  0
   34.2027   31.5245   21.2718 H   0  0  0  0  0  0  0  0  0  0  0  0
   33.6012   33.8888   21.5952 H   0  0  0  0  0  0  0  0  0  0  0  0
   31.9977   35.4304   21.9747 H   0  0  0  0  0  0  0  0  0  0  0  0
   31.2723   37.7638   22.3945 H   0  0  0  0  0  0  0  0  0  0  0  0
   31.7043   38.8329   24.5913 H   0  0  0  0  0  0  0  0  0  0  0  0
   33.6578   35.2621   25.9492 H   0  0  0  0  0  0  0  0  0  0  0  0
   32.8707   33.1520   25.7554 H   0  0  0  0  0  0  0  0  0  0  0  0
   34.3400   31.6470   29.4116 H   0  0  0  0  0  0  0  0  0  0  0  0
  1  2  1  0  0  0  0
  1 26  1  0  0  0  0
  1 27  1  0  0  0  0
  1 28  1  0  0  0  0
  2  3  1  0  0  0  0
  2 24  1  0  0  0  0
  3  4  1  0  0  0  0
  3  5  2  0  0  0  0
  4 29  1  0  0  0  0
  4 46  1  0  0  0  0
  5  6  1  0  0  0  0
  5 30  1  0  0  0  0
  6  7  1  0  0  0  0
  6 11  1  0  0  0  0
  6 24  1  0  0  0  0
  7  8  1  0  0  0  0
  7 31  1  0  0  0  0
  7 32  1  0  0  0  0
  8  9  1  0  0  0  0
  8 10  1  0  0  0  0
  8 33  1  0  0  0  0
  9 10  1  0  0  0  0
  9 34  1  0  0  0  0
  9 35  1  0  0  0  0
 10 36  1  0  0  0  0
 10 37  1  0  0  0  0
 11 12  2  0  0  0  0
 11 23  1  0  0  0  0
 12 13  1  0  0  0  0
 12 38  1  0  0  0  0
 13 14  2  0  0  0  0
 13 39  1  0  0  0  0
 14 15  1  0  0  0  0
 14 40  1  0  0  0  0
 15 16  1  0  0  0  0
 15 23  2  0  0  0  0
 16 17  2  0  0  0  0
 16 22  1  0  0  0  0
 17 18  1  0  0  0  0
 17 41  1  0  0  0  0
 18 19  2  0  0  0  0
 18 42  1  0  0  0  0
 19 20  1  0  0  0  0
 19 43  1  0  0  0  0
 20 21  1  0  0  0  0
 20 22  2  0  0  0  0
 22 44  1  0  0  0  0
 23 45  1  0  0  0  0
 24 25  2  0  0  0  0
M  END
>  <r_user_dG.exp>
-9.273000

$$$$
CAT-17d
  PyMOL2.3          3D                             0

 42 45  0  0  1  0  0  0  0  0999 V2000
   30.5729   30.9239   28.2945 C   0  0  0  0  0  0  0  0  0  0  0  0
   31.7851   30.7025   27.4949 N   0  0  0  0  0  0  0  0  0  0  0  0
   33.0433   30.9570   27.8819 C   0  0  0  0  0  0  0  0  0  0  0  0
   33.4310   31.3836   29.0898 N   0  0  0  0  0  0  0  0  0  0  0  0
   33.9129   30.7162   26.9017 N   0  3  0  0  0  0  0  0  0  0  0  0
   33.2804   30.2274   25.6837 C   0  0  1  0  0  0  0  0  0  0  0  0
   33.4262   31.2369   24.5303 C   0  0  0  0  0  0  0  0  0  0  0  0
   33.7155   30.8122   23.2120 C   0  0  0  0  0  0  0  0  0  0  0  0
   33.7888   31.7473   22.1682 C   0  0  0  0  0  0  0  0  0  0  0  0
   33.5506   33.1088   22.4195 C   0  0  0  0  0  0  0  0  0  0  0  0
   33.2811   33.5776   23.7233 C   0  0  0  0  0  0  0  0  0  0  0  0
   33.0113   35.0130   23.9815 C   0  0  0  0  0  0  0  0  0  0  0  0
   32.8475   35.5203   25.2889 C   0  0  0  0  0  0  0  0  0  0  0  0
   32.6608   36.8999   25.4862 C   0  0  0  0  0  0  0  0  0  0  0  0
   32.6287   37.7411   24.3644 C   0  0  0  0  0  0  0  0  0  0  0  0
   32.7388   37.2822   23.1065 N   0  0  0  0  0  0  0  0  0  0  0  0
   32.9242   35.9581   22.9359 C   0  0  0  0  0  0  0  0  0  0  0  0
   33.2384   32.6228   24.7672 C   0  0  0  0  0  0  0  0  0  0  0  0
   33.9228   28.8653   25.3675 C   0  0  0  0  0  0  0  0  0  0  0  0
   33.6020   27.5900   26.1229 C   0  0  0  0  0  0  0  0  0  0  0  0
   33.2151   27.7227   24.6711 C   0  0  0  0  0  0  0  0  0  0  0  0
   31.8102   30.2051   26.1541 C   0  0  0  0  0  0  0  0  0  0  0  0
   30.8057   29.8710   25.5184 O   0  0  0  0  0  0  0  0  0  0  0  0
   30.3177   31.9833   28.2809 H   0  0  0  0  0  0  0  0  0  0  0  0
   29.7232   30.3633   27.9040 H   0  0  0  0  0  0  0  0  0  0  0  0
   30.7340   30.6226   29.3295 H   0  0  0  0  0  0  0  0  0  0  0  0
   32.7997   31.6412   29.8457 H   0  0  0  0  0  0  0  0  0  0  0  0
   34.9210   30.8717   26.9693 H   0  0  0  0  0  0  0  0  0  0  0  0
   33.8765   29.7726   22.9657 H   0  0  0  0  0  0  0  0  0  0  0  0
   34.0114   31.4186   21.1623 H   0  0  0  0  0  0  0  0  0  0  0  0
   33.5774   33.7911   21.5845 H   0  0  0  0  0  0  0  0  0  0  0  0
   32.9030   34.8668   26.1462 H   0  0  0  0  0  0  0  0  0  0  0  0
   32.5664   37.3135   26.4785 H   0  0  0  0  0  0  0  0  0  0  0  0
   32.5076   38.8083   24.4798 H   0  0  0  0  0  0  0  0  0  0  0  0
   32.9937   35.6400   21.9104 H   0  0  0  0  0  0  0  0  0  0  0  0
   33.0094   32.9565   25.7684 H   0  0  0  0  0  0  0  0  0  0  0  0
   34.9740   28.9710   25.1092 H   0  0  0  0  0  0  0  0  0  0  0  0
   32.7974   27.5965   26.8554 H   0  0  0  0  0  0  0  0  0  0  0  0
   34.4313   26.9248   26.3561 H   0  0  0  0  0  0  0  0  0  0  0  0
   32.1564   27.8164   24.4581 H   0  0  0  0  0  0  0  0  0  0  0  0
   33.7832   27.1526   23.9378 H   0  0  0  0  0  0  0  0  0  0  0  0
   34.4255   31.5306   29.2670 H   0  0  0  0  0  0  0  0  0  0  0  0
  1  2  1  0  0  0  0
  1 24  1  0  0  0  0
  1 25  1  0  0  0  0
  1 26  1  0  0  0  0
  2  3  1  0  0  0  0
  2 22  1  0  0  0  0
  3  4  1  0  0  0  0
  3  5  2  0  0  0  0
  4 27  1  0  0  0  0
  4 42  1  0  0  0  0
  5  6  1  0  0  0  0
  5 28  1  0  0  0  0
  6  7  1  0  0  0  0
  6 19  1  0  0  0  0
  6 22  1  0  0  0  0
  7  8  2  0  0  0  0
  7 18  1  0  0  0  0
  8  9  1  0  0  0  0
  8 29  1  0  0  0  0
  9 10  2  0  0  0  0
  9 30  1  0  0  0  0
 10 11  1  0  0  0  0
 10 31  1  0  0  0  0
 11 12  1  0  0  0  0
 11 18  2  0  0  0  0
 12 13  2  0  0  0  0
 12 17  1  0  0  0  0
 13 14  1  0  0  0  0
 13 32  1  0  0  0  0
 14 15  2  0  0  0  0
 14 33  1  0  0  0  0
 15 16  1  0  0  0  0
 15 34  1  0  0  0  0
 16 17  2  0  0  0  0
 17 35  1  0  0  0  0
 18 36  1  0  0  0  0
 19 20  1  0  0  0  0
 19 21  1  0  0  0  0
 19 37  1  0  0  0  0
 20 21  1  0  0  0  0
 20 38  1  0  0  0  0
 20 39  1  0  0  0  0
 21 40  1  0  0  0  0
 21 41  1  0  0  0  0
 22 23  2  0  0  0  0
M  END
>  <r_user_dG.exp>
-9.423000

$$$$
CAT-13c
  PyMOL2.3          3D                             0

 45 47  0  0  1  0  0  0  0  0999 V2000
   33.5880   27.9397   26.6339 C   0  0  0  0  0  0  0  0  0  0  0  0
   33.7745   28.8734   25.4101 C   0  0  0  0  0  0  0  0  0  0  0  0
   33.1587   28.1027   24.2252 C   0  0  0  0  0  0  0  0  0  0  0  0
   33.2635   30.3447   25.6666 C   0  0  2  0  0  0  0  0  0  0  0  0
   33.5103   31.3923   24.5566 C   0  0  0  0  0  0  0  0  0  0  0  0
   34.1201   31.0673   23.3233 C   0  0  0  0  0  0  0  0  0  0  0  0
   34.1786   32.0066   22.2858 C   0  0  0  0  0  0  0  0  0  0  0  0
   33.6918   33.3070   22.4895 C   0  0  0  0  0  0  0  0  0  0  0  0
   33.2229   33.7232   23.7501 C   0  0  0  0  0  0  0  0  0  0  0  0
   32.8120   35.1251   23.9816 C   0  0  0  0  0  0  0  0  0  0  0  0
   32.1247   35.8553   22.9837 C   0  0  0  0  0  0  0  0  0  0  0  0
   31.6921   37.1767   23.2146 C   0  0  0  0  0  0  0  0  0  0  0  0
   31.9520   37.7979   24.4476 C   0  0  0  0  0  0  0  0  0  0  0  0
   32.6611   37.1023   25.4410 C   0  0  0  0  0  0  0  0  0  0  0  0
   32.9965   37.8762   26.9459 Cl  0  0  0  0  0  0  0  0  0  0  0  0
   33.0874   35.7793   25.2057 C   0  0  0  0  0  0  0  0  0  0  0  0
   33.1362   32.7473   24.7687 C   0  0  0  0  0  0  0  0  0  0  0  0
   33.8893   30.8249   26.8913 N   0  3  0  0  0  0  0  0  0  0  0  0
   33.0114   31.0459   27.8681 C   0  0  0  0  0  0  0  0  0  0  0  0
   33.3952   31.4146   29.0955 N   0  0  0  0  0  0  0  0  0  0  0  0
   31.7516   30.8307   27.4582 N   0  0  0  0  0  0  0  0  0  0  0  0
   30.5327   31.0360   28.2509 C   0  0  0  0  0  0  0  0  0  0  0  0
   31.7820   30.3866   26.0988 C   0  0  0  0  0  0  0  0  0  0  0  0
   30.7801   30.0998   25.4350 O   0  0  0  0  0  0  0  0  0  0  0  0
   33.8901   28.3990   27.5727 H   0  0  0  0  0  0  0  0  0  0  0  0
   32.5469   27.6359   26.7587 H   0  0  0  0  0  0  0  0  0  0  0  0
   34.1719   27.0239   26.5171 H   0  0  0  0  0  0  0  0  0  0  0  0
   34.8460   28.9461   25.2263 H   0  0  0  0  0  0  0  0  0  0  0  0
   33.7022   27.1740   24.0449 H   0  0  0  0  0  0  0  0  0  0  0  0
   32.1343   27.8157   24.4533 H   0  0  0  0  0  0  0  0  0  0  0  0
   33.1299   28.6331   23.2786 H   0  0  0  0  0  0  0  0  0  0  0  0
   34.5426   30.0989   23.1210 H   0  0  0  0  0  0  0  0  0  0  0  0
   34.5922   31.7206   21.3270 H   0  0  0  0  0  0  0  0  0  0  0  0
   33.7082   34.0007   21.6702 H   0  0  0  0  0  0  0  0  0  0  0  0
   31.8960   35.3871   22.0373 H   0  0  0  0  0  0  0  0  0  0  0  0
   31.1442   37.7118   22.4524 H   0  0  0  0  0  0  0  0  0  0  0  0
   31.6087   38.8059   24.6341 H   0  0  0  0  0  0  0  0  0  0  0  0
   33.6380   35.2635   25.9755 H   0  0  0  0  0  0  0  0  0  0  0  0
   32.7315   33.0493   25.7222 H   0  0  0  0  0  0  0  0  0  0  0  0
   34.8992   30.9510   26.9759 H   0  0  0  0  0  0  0  0  0  0  0  0
   32.7609   31.6609   29.8530 H   0  0  0  0  0  0  0  0  0  0  0  0
   29.6784   30.5115   27.8231 H   0  0  0  0  0  0  0  0  0  0  0  0
   30.6761   30.6803   29.2701 H   0  0  0  0  0  0  0  0  0  0  0  0
   30.2994   32.0986   28.2837 H   0  0  0  0  0  0  0  0  0  0  0  0
   34.3896   31.5424   29.2834 H   0  0  0  0  0  0  0  0  0  0  0  0
  1  2  1  0  0  0  0
  1 25  1  0  0  0  0
  1 26  1  0  0  0  0
  1 27  1  0  0  0  0
  2  3  1  0  0  0  0
  2  4  1  0  0  0  0
  2 28  1  0  0  0  0
  3 29  1  0  0  0  0
  3 30  1  0  0  0  0
  3 31  1  0  0  0  0
  4  5  1  0  0  0  0
  4 18  1  0  0  0  0
  4 23  1  0  0  0  0
  5  6  2  0  0  0  0
  5 17  1  0  0  0  0
  6  7  1  0  0  0  0
  6 32  1  0  0  0  0
  7  8  2  0  0  0  0
  7 33  1  0  0  0  0
  8  9  1  0  0  0  0
  8 34  1  0  0  0  0
  9 10  1  0  0  0  0
  9 17  2  0  0  0  0
 10 11  2  0  0  0  0
 10 16  1  0  0  0  0
 11 12  1  0  0  0  0
 11 35  1  0  0  0  0
 12 13  2  0  0  0  0
 12 36  1  0  0  0  0
 13 14  1  0  0  0  0
 13 37  1  0  0  0  0
 14 15  1  0  0  0  0
 14 16  2  0  0  0  0
 16 38  1  0  0  0  0
 17 39  1  0  0  0  0
 18 19  2  0  0  0  0
 18 40  1  0  0  0  0
 19 20  1  0  0  0  0
 19 21  1  0  0  0  0
 20 41  1  0  0  0  0
 20 45  1  0  0  0  0
 21 22  1  0  0  0  0
 21 23  1  0  0  0  0
 22 42  1  0  0  0  0
 22 43  1  0  0  0  0
 22 44  1  0  0  0  0
 23 24  2  0  0  0  0
M  END
>  <r_user_dG.exp>
-9.323000

$$$$
CAT-17c
  PyMOL2.3          3D                             0

 44 47  0  0  1  0  0  0  0  0999 V2000
   30.5540   30.9523   28.2832 C   0  0  0  0  0  0  0  0  0  0  0  0
   31.7714   30.7784   27.4800 N   0  0  0  0  0  0  0  0  0  0  0  0
   33.0252   31.0413   27.8761 C   0  0  0  0  0  0  0  0  0  0  0  0
   33.4089   31.4252   29.0988 N   0  0  0  0  0  0  0  0  0  0  0  0
   33.8982   30.8524   26.8888 N   0  3  0  0  0  0  0  0  0  0  0  0
   33.2802   30.3619   25.6661 C   0  0  1  0  0  0  0  0  0  0  0  0
   33.4274   31.3732   24.5141 C   0  0  0  0  0  0  0  0  0  0  0  0
   33.8056   30.9568   23.2152 C   0  0  0  0  0  0  0  0  0  0  0  0
   33.8663   31.8834   22.1637 C   0  0  0  0  0  0  0  0  0  0  0  0
   33.5256   33.2282   22.3881 C   0  0  0  0  0  0  0  0  0  0  0  0
   33.1696   33.6903   23.6725 C   0  0  0  0  0  0  0  0  0  0  0  0
   32.7747   35.1026   23.8887 C   0  0  0  0  0  0  0  0  0  0  0  0
   32.0719   35.8126   22.8870 C   0  0  0  0  0  0  0  0  0  0  0  0
   31.6201   37.1298   23.1019 C   0  0  0  0  0  0  0  0  0  0  0  0
   31.8791   37.7716   24.3237 C   0  0  0  0  0  0  0  0  0  0  0  0
   32.6019   37.0971   25.3239 C   0  0  0  0  0  0  0  0  0  0  0  0
   32.8765   37.7735   26.5795 C   0  0  0  0  0  0  0  0  0  0  0  0
   33.0951   38.3153   27.5768 N   0  0  0  0  0  0  0  0  0  0  0  0
   33.0455   35.7743   25.1044 C   0  0  0  0  0  0  0  0  0  0  0  0
   33.1481   32.7490   24.7280 C   0  0  0  0  0  0  0  0  0  0  0  0
   33.9364   29.0041   25.3596 C   0  0  0  0  0  0  0  0  0  0  0  0
   33.5962   27.7180   26.0888 C   0  0  0  0  0  0  0  0  0  0  0  0
   33.2554   27.8686   24.6268 C   0  0  0  0  0  0  0  0  0  0  0  0
   31.8074   30.3178   26.1267 C   0  0  0  0  0  0  0  0  0  0  0  0
   30.8098   29.9872   25.4778 O   0  0  0  0  0  0  0  0  0  0  0  0
   30.7263   30.6469   29.3158 H   0  0  0  0  0  0  0  0  0  0  0  0
   30.2636   32.0032   28.2787 H   0  0  0  0  0  0  0  0  0  0  0  0
   29.7229   30.3667   27.8879 H   0  0  0  0  0  0  0  0  0  0  0  0
   32.7755   31.6580   29.8608 H   0  0  0  0  0  0  0  0  0  0  0  0
   34.9074   30.9927   26.9703 H   0  0  0  0  0  0  0  0  0  0  0  0
   34.0426   29.9279   22.9859 H   0  0  0  0  0  0  0  0  0  0  0  0
   34.1513   31.5571   21.1726 H   0  0  0  0  0  0  0  0  0  0  0  0
   33.5357   33.9082   21.5502 H   0  0  0  0  0  0  0  0  0  0  0  0
   31.8341   35.3296   21.9504 H   0  0  0  0  0  0  0  0  0  0  0  0
   31.0533   37.6446   22.3396 H   0  0  0  0  0  0  0  0  0  0  0  0
   31.5175   38.7772   24.4924 H   0  0  0  0  0  0  0  0  0  0  0  0
   33.5983   35.2693   25.8813 H   0  0  0  0  0  0  0  0  0  0  0  0
   32.8536   33.0865   25.7103 H   0  0  0  0  0  0  0  0  0  0  0  0
   34.9953   29.1150   25.1401 H   0  0  0  0  0  0  0  0  0  0  0  0
   34.4204   27.0527   26.3390 H   0  0  0  0  0  0  0  0  0  0  0  0
   32.7683   27.7101   26.7946 H   0  0  0  0  0  0  0  0  0  0  0  0
   32.2045   27.9657   24.3808 H   0  0  0  0  0  0  0  0  0  0  0  0
   33.8482   27.3097   23.9045 H   0  0  0  0  0  0  0  0  0  0  0  0
   34.4021   31.5686   29.2842 H   0  0  0  0  0  0  0  0  0  0  0  0
  1  2  1  0  0  0  0
  1 26  1  0  0  0  0
  1 27  1  0  0  0  0
  1 28  1  0  0  0  0
  2  3  1  0  0  0  0
  2 24  1  0  0  0  0
  3  4  1  0  0  0  0
  3  5  2  0  0  0  0
  4 29  1  0  0  0  0
  4 44  1  0  0  0  0
  5  6  1  0  0  0  0
  5 30  1  0  0  0  0
  6  7  1  0  0  0  0
  6 21  1  0  0  0  0
  6 24  1  0  0  0  0
  7  8  2  0  0  0  0
  7 20  1  0  0  0  0
  8  9  1  0  0  0  0
  8 31  1  0  0  0  0
  9 10  2  0  0  0  0
  9 32  1  0  0  0  0
 10 11  1  0  0  0  0
 10 33  1  0  0  0  0
 11 12  1  0  0  0  0
 11 20  2  0  0  0  0
 12 13  2  0  0  0  0
 12 19  1  0  0  0  0
 13 14  1  0  0  0  0
 13 34  1  0  0  0  0
 14 15  2  0  0  0  0
 14 35  1  0  0  0  0
 15 16  1  0  0  0  0
 15 36  1  0  0  0  0
 16 17  1  0  0  0  0
 16 19  2  0  0  0  0
 17 18  3  0  0  0  0
 19 37  1  0  0  0  0
 20 38  1  0  0  0  0
 21 22  1  0  0  0  0
 21 23  1  0  0  0  0
 21 39  1  0  0  0  0
 22 23  1  0  0  0  0
 22 40  1  0  0  0  0
 22 41  1  0  0  0  0
 23 42  1  0  0  0  0
 23 43  1  0  0  0  0
 24 25  2  0  0  0  0
M  END
>  <r_user_dG.exp>
-9.863000

$$$$
CAT-24
  PyMOL2.3          3D                             0

 47 50  0  0  1  0  0  0  0  0999 V2000
   33.4338   39.2651   28.5489 C   0  0  0  0  0  0  0  0  0  0  0  0
   33.1952   38.3300   27.4409 C   0  0  0  0  0  0  0  0  0  0  0  0
   33.0284   37.6066   26.4714 C   0  0  0  0  0  0  0  0  0  0  0  0
   32.8394   36.8584   25.2405 C   0  0  0  0  0  0  0  0  0  0  0  0
   32.2828   37.5025   24.1259 C   0  0  0  0  0  0  0  0  0  0  0  0
   32.1066   36.8936   22.9434 N   0  0  0  0  0  0  0  0  0  0  0  0
   32.4587   35.5983   22.8384 C   0  0  0  0  0  0  0  0  0  0  0  0
   33.0020   34.8227   23.8897 C   0  0  0  0  0  0  0  0  0  0  0  0
   33.2844   33.3747   23.7023 C   0  0  0  0  0  0  0  0  0  0  0  0
   33.5348   32.8610   22.4137 C   0  0  0  0  0  0  0  0  0  0  0  0
   33.6911   31.4868   22.1943 C   0  0  0  0  0  0  0  0  0  0  0  0
   33.5761   30.5804   23.2584 C   0  0  0  0  0  0  0  0  0  0  0  0
   33.3663   31.0395   24.5813 C   0  0  0  0  0  0  0  0  0  0  0  0
   33.1715   30.1023   25.8068 C   0  0  1  0  0  0  0  0  0  0  0  0
   33.5587   28.6021   25.7741 C   0  0  0  0  0  0  0  0  0  0  0  0
   33.1121   27.5985   24.7377 C   0  0  0  0  0  0  0  0  0  0  0  0
   34.5781   27.9320   24.8780 C   0  0  0  0  0  0  0  0  0  0  0  0
   33.8570   30.6491   26.9726 N   0  3  0  0  0  0  0  0  0  0  0  0
   33.0134   30.9842   27.9477 C   0  0  0  0  0  0  0  0  0  0  0  0
   33.4449   31.4365   29.1279 N   0  0  0  0  0  0  0  0  0  0  0  0
   31.7352   30.7858   27.5909 N   0  0  0  0  0  0  0  0  0  0  0  0
   30.5423   31.1047   28.3848 C   0  0  0  0  0  0  0  0  0  0  0  0
   31.7116   30.2267   26.2781 C   0  0  0  0  0  0  0  0  0  0  0  0
   30.6829   29.9180   25.6676 O   0  0  0  0  0  0  0  0  0  0  0  0
   33.2465   32.4483   24.7741 C   0  0  0  0  0  0  0  0  0  0  0  0
   33.2068   35.5023   25.1135 C   0  0  0  0  0  0  0  0  0  0  0  0
   32.7228   40.0858   28.5120 H   0  0  0  0  0  0  0  0  0  0  0  0
   33.3191   38.7513   29.5006 H   0  0  0  0  0  0  0  0  0  0  0  0
   34.4459   39.6643   28.4862 H   0  0  0  0  0  0  0  0  0  0  0  0
   31.9791   38.5385   24.1761 H   0  0  0  0  0  0  0  0  0  0  0  0
   32.2526   35.1628   21.8729 H   0  0  0  0  0  0  0  0  0  0  0  0
   33.5864   33.5127   21.5565 H   0  0  0  0  0  0  0  0  0  0  0  0
   33.8700   31.1306   21.1901 H   0  0  0  0  0  0  0  0  0  0  0  0
   33.6419   29.5425   22.9916 H   0  0  0  0  0  0  0  0  0  0  0  0
   33.5497   28.1867   26.7816 H   0  0  0  0  0  0  0  0  0  0  0  0
   32.7831   26.6222   25.0884 H   0  0  0  0  0  0  0  0  0  0  0  0
   32.5816   27.9679   23.8721 H   0  0  0  0  0  0  0  0  0  0  0  0
   35.0425   28.4873   24.0763 H   0  0  0  0  0  0  0  0  0  0  0  0
   35.2233   27.1864   25.3388 H   0  0  0  0  0  0  0  0  0  0  0  0
   34.8704   30.7696   27.0111 H   0  0  0  0  0  0  0  0  0  0  0  0
   32.8412   31.7307   29.8934 H   0  0  0  0  0  0  0  0  0  0  0  0
   29.6949   30.4788   28.1039 H   0  0  0  0  0  0  0  0  0  0  0  0
   30.7323   30.9605   29.4479 H   0  0  0  0  0  0  0  0  0  0  0  0
   30.2659   32.1454   28.2182 H   0  0  0  0  0  0  0  0  0  0  0  0
   33.0481   32.8293   25.7650 H   0  0  0  0  0  0  0  0  0  0  0  0
   33.6455   34.9864   25.9502 H   0  0  0  0  0  0  0  0  0  0  0  0
   34.4480   31.5494   29.2806 H   0  0  0  0  0  0  0  0  0  0  0  0
  1  2  1  0  0  0  0
  1 27  1  0  0  0  0
  1 28  1  0  0  0  0
  1 29  1  0  0  0  0
  2  3  3  0  0  0  0
  3  4  1  0  0  0  0
  4  5  2  0  0  0  0
  4 26  1  0  0  0  0
  5  6  1  0  0  0  0
  5 30  1  0  0  0  0
  6  7  2  0  0  0  0
  7  8  1  0  0  0  0
  7 31  1  0  0  0  0
  8  9  1  0  0  0  0
  8 26  2  0  0  0  0
  9 10  2  0  0  0  0
  9 25  1  0  0  0  0
 10 11  1  0  0  0  0
 10 32  1  0  0  0  0
 11 12  2  0  0  0  0
 11 33  1  0  0  0  0
 12 13  1  0  0  0  0
 12 34  1  0  0  0  0
 13 14  1  0  0  0  0
 13 25  2  0  0  0  0
 14 15  1  0  0  0  0
 14 18  1  0  0  0  0
 14 23  1  0  0  0  0
 15 16  1  0  0  0  0
 15 17  1  0  0  0  0
 15 35  1  0  0  0  0
 16 17  1  0  0  0  0
 16 36  1  0  0  0  0
 16 37  1  0  0  0  0
 17 38  1  0  0  0  0
 17 39  1  0  0  0  0
 18 19  2  0  0  0  0
 18 40  1  0  0  0  0
 19 20  1  0  0  0  0
 19 21  1  0  0  0  0
 20 41  1  0  0  0  0
 20 47  1  0  0  0  0
 21 22  1  0  0  0  0
 21 23  1  0  0  0  0
 22 42  1  0  0  0  0
 22 43  1  0  0  0  0
 22 44  1  0  0  0  0
 23 24  2  0  0  0  0
 25 45  1  0  0  0  0
 26 46  1  0  0  0  0
M  END
>  <r_user_dG.exp>
-11.350000

$$$$
CAT-17i
  PyMOL2.3          3D                             0

 45 48  0  0  1  0  0  0  0  0999 V2000
   33.0996   37.8646   26.8347 C   0  0  0  0  0  0  0  0  0  0  0  0
   32.7884   37.1760   25.5212 C   0  0  0  0  0  0  0  0  0  0  0  0
   32.0831   37.8458   24.5124 C   0  0  0  0  0  0  0  0  0  0  0  0
   31.8074   37.2909   23.3159 N   0  0  0  0  0  0  0  0  0  0  0  0
   32.2057   36.0219   23.0993 C   0  0  0  0  0  0  0  0  0  0  0  0
   32.8775   35.2227   24.0461 C   0  0  0  0  0  0  0  0  0  0  0  0
   33.1804   33.7922   23.7692 C   0  0  0  0  0  0  0  0  0  0  0  0
   33.4367   33.3450   22.4536 C   0  0  0  0  0  0  0  0  0  0  0  0
   33.6633   31.9859   22.1856 C   0  0  0  0  0  0  0  0  0  0  0  0
   33.5676   31.0309   23.2055 C   0  0  0  0  0  0  0  0  0  0  0  0
   33.3026   31.4200   24.5372 C   0  0  0  0  0  0  0  0  0  0  0  0
   33.1322   30.4249   25.7161 C   0  0  1  0  0  0  0  0  0  0  0  0
   33.5305   28.9324   25.6060 C   0  0  0  0  0  0  0  0  0  0  0  0
   33.0231   28.0109   24.5253 C   0  0  0  0  0  0  0  0  0  0  0  0
   34.4999   28.2647   24.6568 C   0  0  0  0  0  0  0  0  0  0  0  0
   33.8248   30.9200   26.9014 N   0  3  0  0  0  0  0  0  0  0  0  0
   33.0000   31.0592   27.9389 C   0  0  0  0  0  0  0  0  0  0  0  0
   33.4478   31.3541   29.1631 N   0  0  0  0  0  0  0  0  0  0  0  0
   31.7233   30.8331   27.5943 N   0  0  0  0  0  0  0  0  0  0  0  0
   30.5650   30.8196   28.4973 C   0  0  0  0  0  0  0  0  0  0  0  0
   31.6805   30.4796   26.2144 C   0  0  0  0  0  0  0  0  0  0  0  0
   30.6513   30.2018   25.5895 O   0  0  0  0  0  0  0  0  0  0  0  0
   33.1504   32.8131   24.7942 C   0  0  0  0  0  0  0  0  0  0  0  0
   33.1961   35.8475   25.2747 C   0  0  0  0  0  0  0  0  0  0  0  0
   32.4213   37.5099   27.6039 H   0  0  0  0  0  0  0  0  0  0  0  0
   34.1209   37.6669   27.1640 H   0  0  0  0  0  0  0  0  0  0  0  0
   32.9828   38.9467   26.7668 H   0  0  0  0  0  0  0  0  0  0  0  0
   31.7582   38.8692   24.6503 H   0  0  0  0  0  0  0  0  0  0  0  0
   31.8965   35.6094   22.1510 H   0  0  0  0  0  0  0  0  0  0  0  0
   33.4574   34.0333   21.6235 H   0  0  0  0  0  0  0  0  0  0  0  0
   33.8845   31.6532   21.1836 H   0  0  0  0  0  0  0  0  0  0  0  0
   33.6881   30.0130   22.8855 H   0  0  0  0  0  0  0  0  0  0  0  0
   33.5159   28.4474   26.5821 H   0  0  0  0  0  0  0  0  0  0  0  0
   32.6201   27.0511   24.8472 H   0  0  0  0  0  0  0  0  0  0  0  0
   32.5115   28.4842   23.7043 H   0  0  0  0  0  0  0  0  0  0  0  0
   34.9597   28.8225   23.8588 H   0  0  0  0  0  0  0  0  0  0  0  0
   35.1264   27.4746   25.0763 H   0  0  0  0  0  0  0  0  0  0  0  0
   34.8414   31.0135   26.9408 H   0  0  0  0  0  0  0  0  0  0  0  0
   32.8505   31.6037   29.9506 H   0  0  0  0  0  0  0  0  0  0  0  0
   29.6552   31.1494   27.9933 H   0  0  0  0  0  0  0  0  0  0  0  0
   30.4027   29.8119   28.8825 H   0  0  0  0  0  0  0  0  0  0  0  0
   30.7547   31.4642   29.3512 H   0  0  0  0  0  0  0  0  0  0  0  0
   32.9208   33.1207   25.8044 H   0  0  0  0  0  0  0  0  0  0  0  0
   33.7307   35.3043   26.0350 H   0  0  0  0  0  0  0  0  0  0  0  0
   34.4500   31.4969   29.2954 H   0  0  0  0  0  0  0  0  0  0  0  0
  1  2  1  0  0  0  0
  1 25  1  0  0  0  0
  1 26  1  0  0  0  0
  1 27  1  0  0  0  0
  2  3  2  0  0  0  0
  2 24  1  0  0  0  0
  3  4  1  0  0  0  0
  3 28  1  0  0  0  0
  4  5  2  0  0  0  0
  5  6  1  0  0  0  0
  5 29  1  0  0  0  0
  6  7  1  0  0  0  0
  6 24  2  0  0  0  0
  7  8  2  0  0  0  0
  7 23  1  0  0  0  0
  8  9  1  0  0  0  0
  8 30  1  0  0  0  0
  9 10  2  0  0  0  0
  9 31  1  0  0  0  0
 10 11  1  0  0  0  0
 10 32  1  0  0  0  0
 11 12  1  0  0  0  0
 11 23  2  0  0  0  0
 12 13  1  0  0  0  0
 12 16  1  0  0  0  0
 12 21  1  0  0  0  0
 13 14  1  0  0  0  0
 13 15  1  0  0  0  0
 13 33  1  0  0  0  0
 14 15  1  0  0  0  0
 14 34  1  0  0  0  0
 14 35  1  0  0  0  0
 15 36  1  0  0  0  0
 15 37  1  0  0  0  0
 16 17  2  0  0  0  0
 16 38  1  0  0  0  0
 17 18  1  0  0  0  0
 17 19  1  0  0  0  0
 18 39  1  0  0  0  0
 18 45  1  0  0  0  0
 19 20  1  0  0  0  0
 19 21  1  0  0  0  0
 20 40  1  0  0  0  0
 20 41  1  0  0  0  0
 20 42  1  0  0  0  0
 21 22  2  0  0  0  0
 23 43  1  0  0  0  0
 24 44  1  0  0  0  0
M  END
>  <r_user_dG.exp>
-9.473000

$$$$
CAT-13g
  PyMOL2.3          3D                             0

 52 55  0  0  1  0  0  0  0  0999 V2000
   30.4987   31.1428   28.5531 C   0  0  0  0  0  0  0  0  0  0  0  0
   31.6174   30.9483   27.6247 N   0  0  0  0  0  0  0  0  0  0  0  0
   32.9333   31.0576   27.8840 C   0  0  0  0  0  0  0  0  0  0  0  0
   33.4755   31.3754   29.0658 N   0  0  0  0  0  0  0  0  0  0  0  0
   33.6775   30.7835   26.8060 N   0  3  0  0  0  0  0  0  0  0  0  0
   32.8429   30.3923   25.6641 C   0  0  1  0  0  0  0  0  0  0  0  0
   32.9757   31.3930   24.4953 C   0  0  0  0  0  0  0  0  0  0  0  0
   33.0413   30.9584   23.1524 C   0  0  0  0  0  0  0  0  0  0  0  0
   33.2014   31.8836   22.1163 C   0  0  0  0  0  0  0  0  0  0  0  0
   33.1851   33.2634   22.3834 C   0  0  0  0  0  0  0  0  0  0  0  0
   33.0215   33.7471   23.7003 C   0  0  0  0  0  0  0  0  0  0  0  0
   32.8033   35.1930   23.9636 C   0  0  0  0  0  0  0  0  0  0  0  0
   32.1489   36.0041   23.0050 C   0  0  0  0  0  0  0  0  0  0  0  0
   31.8077   37.3425   23.2837 C   0  0  0  0  0  0  0  0  0  0  0  0
   32.1225   37.9027   24.5320 C   0  0  0  0  0  0  0  0  0  0  0  0
   32.8062   37.1318   25.4853 C   0  0  0  0  0  0  0  0  0  0  0  0
   33.2004   37.8323   27.0120 Cl  0  0  0  0  0  0  0  0  0  0  0  0
   33.1491   35.7947   25.1986 C   0  0  0  0  0  0  0  0  0  0  0  0
   32.9786   32.7914   24.7451 C   0  0  0  0  0  0  0  0  0  0  0  0
   33.1010   28.8832   25.3115 C   0  0  0  0  0  0  0  0  0  0  0  0
   34.5136   28.6198   24.7558 C   0  0  0  0  0  0  0  0  0  0  0  0
   34.6608   27.1804   24.2566 C   0  0  0  0  0  0  0  0  0  0  0  0
   34.4732   26.2131   25.4237 C   0  0  0  0  0  0  0  0  0  0  0  0
   33.0972   26.4202   26.0686 C   0  0  0  0  0  0  0  0  0  0  0  0
   32.8708   27.8858   26.4858 C   0  0  0  0  0  0  0  0  0  0  0  0
   31.4431   30.5621   26.2660 C   0  0  0  0  0  0  0  0  0  0  0  0
   30.3517   30.3538   25.7252 O   0  0  0  0  0  0  0  0  0  0  0  0
   30.0033   32.0873   28.3325 H   0  0  0  0  0  0  0  0  0  0  0  0
   29.7644   30.3439   28.4494 H   0  0  0  0  0  0  0  0  0  0  0  0
   30.8395   31.1493   29.5866 H   0  0  0  0  0  0  0  0  0  0  0  0
   32.9377   31.6783   29.8768 H   0  0  0  0  0  0  0  0  0  0  0  0
   34.6937   30.8441   26.7710 H   0  0  0  0  0  0  0  0  0  0  0  0
   33.0050   29.9161   22.8755 H   0  0  0  0  0  0  0  0  0  0  0  0
   33.3147   31.5221   21.1071 H   0  0  0  0  0  0  0  0  0  0  0  0
   33.2659   33.9449   21.5490 H   0  0  0  0  0  0  0  0  0  0  0  0
   31.8454   35.5841   22.0577 H   0  0  0  0  0  0  0  0  0  0  0  0
   31.2760   37.9339   22.5506 H   0  0  0  0  0  0  0  0  0  0  0  0
   31.8428   38.9207   24.7611 H   0  0  0  0  0  0  0  0  0  0  0  0
   33.6643   35.2215   25.9513 H   0  0  0  0  0  0  0  0  0  0  0  0
   32.8694   33.1431   25.7586 H   0  0  0  0  0  0  0  0  0  0  0  0
   32.3810   28.6042   24.5413 H   0  0  0  0  0  0  0  0  0  0  0  0
   34.7622   29.2927   23.9451 H   0  0  0  0  0  0  0  0  0  0  0  0
   35.2481   28.8067   25.5405 H   0  0  0  0  0  0  0  0  0  0  0  0
   35.6438   27.0416   23.8134 H   0  0  0  0  0  0  0  0  0  0  0  0
   33.9337   26.9752   23.4694 H   0  0  0  0  0  0  0  0  0  0  0  0
   34.5813   25.1856   25.0860 H   0  0  0  0  0  0  0  0  0  0  0  0
   35.2638   26.3749   26.1575 H   0  0  0  0  0  0  0  0  0  0  0  0
   32.3201   26.1152   25.3655 H   0  0  0  0  0  0  0  0  0  0  0  0
   33.0008   25.7692   26.9380 H   0  0  0  0  0  0  0  0  0  0  0  0
   33.5472   28.1237   27.3079 H   0  0  0  0  0  0  0  0  0  0  0  0
   31.8608   27.9632   26.8884 H   0  0  0  0  0  0  0  0  0  0  0  0
   34.4918   31.4426   29.1495 H   0  0  0  0  0  0  0  0  0  0  0  0
  1  2  1  0  0  0  0
  1 28  1  0  0  0  0
  1 29  1  0  0  0  0
  1 30  1  0  0  0  0
  2  3  1  0  0  0  0
  2 26  1  0  0  0  0
  3  4  1  0  0  0  0
  3  5  2  0  0  0  0
  4 31  1  0  0  0  0
  4 52  1  0  0  0  0
  5  6  1  0  0  0  0
  5 32  1  0  0  0  0
  6  7  1  0  0  0  0
  6 20  1  0  0  0  0
  6 26  1  0  0  0  0
  7  8  2  0  0  0  0
  7 19  1  0  0  0  0
  8  9  1  0  0  0  0
  8 33  1  0  0  0  0
  9 10  2  0  0  0  0
  9 34  1  0  0  0  0
 10 11  1  0  0  0  0
 10 35  1  0  0  0  0
 11 12  1  0  0  0  0
 11 19  2  0  0  0  0
 12 13  2  0  0  0  0
 12 18  1  0  0  0  0
 13 14  1  0  0  0  0
 13 36  1  0  0  0  0
 14 15  2  0  0  0  0
 14 37  1  0  0  0  0
 15 16  1  0  0  0  0
 15 38  1  0  0  0  0
 16 17  1  0  0  0  0
 16 18  2  0  0  0  0
 18 39  1  0  0  0  0
 19 40  1  0  0  0  0
 20 21  1  0  0  0  0
 20 25  1  0  0  0  0
 20 41  1  0  0  0  0
 21 22  1  0  0  0  0
 21 42  1  0  0  0  0
 21 43  1  0  0  0  0
 22 23  1  0  0  0  0
 22 44  1  0  0  0  0
 22 45  1  0  0  0  0
 23 24  1  0  0  0  0
 23 46  1  0  0  0  0
 23 47  1  0  0  0  0
 24 25  1  0  0  0  0
 24 48  1  0  0  0  0
 24 49  1  0  0  0  0
 25 50  1  0  0  0  0
 25 51  1  0  0  0  0
 26 27  2  0  0  0  0
M  END
>  <r_user_dG.exp>
-9.093000

$$$$
CAT-4j
  PyMOL2.3          3D                             0

 45 48  0  0  1  0  0  0  0  0999 V2000
   30.5276   31.0013   28.4947 C   0  0  0  0  0  0  0  0  0  0  0  0
   31.7060   30.7374   27.6589 N   0  0  0  0  0  0  0  0  0  0  0  0
   32.9886   30.9464   27.9886 C   0  0  0  0  0  0  0  0  0  0  0  0
   33.4437   31.3677   29.1716 N   0  0  0  0  0  0  0  0  0  0  0  0
   33.8083   30.6758   26.9751 N   0  3  0  0  0  0  0  0  0  0  0  0
   33.1057   30.1626   25.7973 C   0  0  2  0  0  0  0  0  0  0  0  0
   33.5497   28.7015   25.5502 C   0  0  0  0  0  0  0  0  0  0  0  0
   34.9058   28.3608   25.7413 C   0  0  0  0  0  0  0  0  0  0  0  0
   35.3759   27.0511   25.5505 C   0  0  0  0  0  0  0  0  0  0  0  0
   34.4798   26.0361   25.1946 C   0  0  0  0  0  0  0  0  0  0  0  0
   33.1249   26.3451   24.9916 C   0  0  0  0  0  0  0  0  0  0  0  0
   32.6666   27.6683   25.1535 C   0  0  0  0  0  0  0  0  0  0  0  0
   33.2948   31.1126   24.6008 C   0  0  0  0  0  0  0  0  0  0  0  0
   33.5947   30.6354   23.3039 C   0  0  0  0  0  0  0  0  0  0  0  0
   33.7170   31.5400   22.2340 C   0  0  0  0  0  0  0  0  0  0  0  0
   33.5276   32.9182   22.4408 C   0  0  0  0  0  0  0  0  0  0  0  0
   33.2522   33.4345   23.7247 C   0  0  0  0  0  0  0  0  0  0  0  0
   33.0339   34.8844   23.9510 C   0  0  0  0  0  0  0  0  0  0  0  0
   33.0196   35.4527   25.2433 C   0  0  0  0  0  0  0  0  0  0  0  0
   32.8836   36.8452   25.3914 C   0  0  0  0  0  0  0  0  0  0  0  0
   32.7486   37.6358   24.2414 C   0  0  0  0  0  0  0  0  0  0  0  0
   32.7123   37.1190   23.0028 N   0  0  0  0  0  0  0  0  0  0  0  0
   32.8511   35.7849   22.8783 C   0  0  0  0  0  0  0  0  0  0  0  0
   33.1517   32.5111   24.7906 C   0  0  0  0  0  0  0  0  0  0  0  0
   31.6517   30.2667   26.3132 C   0  0  0  0  0  0  0  0  0  0  0  0
   30.6005   30.0310   25.7054 O   0  0  0  0  0  0  0  0  0  0  0  0
   29.7106   30.3203   28.2548 H   0  0  0  0  0  0  0  0  0  0  0  0
   30.7631   30.8867   29.5522 H   0  0  0  0  0  0  0  0  0  0  0  0
   30.1816   32.0200   28.3225 H   0  0  0  0  0  0  0  0  0  0  0  0
   34.4478   31.4989   29.3026 H   0  0  0  0  0  0  0  0  0  0  0  0
   34.8194   30.8071   26.9972 H   0  0  0  0  0  0  0  0  0  0  0  0
   35.6057   29.1095   26.0641 H   0  0  0  0  0  0  0  0  0  0  0  0
   36.4226   26.8286   25.7057 H   0  0  0  0  0  0  0  0  0  0  0  0
   34.8388   25.0267   25.0957 H   0  0  0  0  0  0  0  0  0  0  0  0
   32.4356   25.5619   24.7141 H   0  0  0  0  0  0  0  0  0  0  0  0
   31.6227   27.8637   24.9844 H   0  0  0  0  0  0  0  0  0  0  0  0
   33.7296   29.5807   23.1042 H   0  0  0  0  0  0  0  0  0  0  0  0
   33.9454   31.1807   21.2404 H   0  0  0  0  0  0  0  0  0  0  0  0
   33.5976   33.5770   21.5897 H   0  0  0  0  0  0  0  0  0  0  0  0
   33.1516   34.8360   26.1198 H   0  0  0  0  0  0  0  0  0  0  0  0
   32.9055   37.3117   26.3635 H   0  0  0  0  0  0  0  0  0  0  0  0
   32.6673   38.7100   24.3176 H   0  0  0  0  0  0  0  0  0  0  0  0
   32.7990   35.4192   21.8681 H   0  0  0  0  0  0  0  0  0  0  0  0
   32.9169   32.8825   25.7768 H   0  0  0  0  0  0  0  0  0  0  0  0
   32.8519   31.6520   29.9505 H   0  0  0  0  0  0  0  0  0  0  0  0
  1  2  1  0  0  0  0
  1 27  1  0  0  0  0
  1 28  1  0  0  0  0
  1 29  1  0  0  0  0
  2  3  1  0  0  0  0
  2 25  1  0  0  0  0
  3  4  1  0  0  0  0
  3  5  2  0  0  0  0
  4 30  1  0  0  0  0
  4 45  1  0  0  0  0
  5  6  1  0  0  0  0
  5 31  1  0  0  0  0
  6  7  1  0  0  0  0
  6 13  1  0  0  0  0
  6 25  1  0  0  0  0
  7  8  2  0  0  0  0
  7 12  1  0  0  0  0
  8  9  1  0  0  0  0
  8 32  1  0  0  0  0
  9 10  2  0  0  0  0
  9 33  1  0  0  0  0
 10 11  1  0  0  0  0
 10 34  1  0  0  0  0
 11 12  2  0  0  0  0
 11 35  1  0  0  0  0
 12 36  1  0  0  0  0
 13 14  2  0  0  0  0
 13 24  1  0  0  0  0
 14 15  1  0  0  0  0
 14 37  1  0  0  0  0
 15 16  2  0  0  0  0
 15 38  1  0  0  0  0
 16 17  1  0  0  0  0
 16 39  1  0  0  0  0
 17 18  1  0  0  0  0
 17 24  2  0  0  0  0
 18 19  2  0  0  0  0
 18 23  1  0  0  0  0
 19 20  1  0  0  0  0
 19 40  1  0  0  0  0
 20 21  2  0  0  0  0
 20 41  1  0  0  0  0
 21 22  1  0  0  0  0
 21 42  1  0  0  0  0
 22 23  2  0  0  0  0
 23 43  1  0  0  0  0
 24 44  1  0  0  0  0
 25 26  2  0  0  0  0
M  END
>  <r_user_dG.exp>
-9.023000

$$$$
CAT-17b
  PyMOL2.3          3D                             0

 47 50  0  0  1  0  0  0  0  0999 V2000
   32.7030   38.3255   27.1056 C   0  0  0  0  0  0  0  0  0  0  0  0
   33.3411   37.1424   26.6692 O   0  0  0  0  0  0  0  0  0  0  0  0
   32.9890   36.6476   25.4352 C   0  0  0  0  0  0  0  0  0  0  0  0
   32.3414   37.4005   24.4305 C   0  0  0  0  0  0  0  0  0  0  0  0
   32.0498   36.8036   23.1929 C   0  0  0  0  0  0  0  0  0  0  0  0
   32.3926   35.4576   22.9503 C   0  0  0  0  0  0  0  0  0  0  0  0
   33.0104   34.6717   23.9538 C   0  0  0  0  0  0  0  0  0  0  0  0
   33.3004   33.2315   23.7466 C   0  0  0  0  0  0  0  0  0  0  0  0
   33.6100   32.7611   22.4605 C   0  0  0  0  0  0  0  0  0  0  0  0
   33.8016   31.3947   22.2163 C   0  0  0  0  0  0  0  0  0  0  0  0
   33.6932   30.4608   23.2627 C   0  0  0  0  0  0  0  0  0  0  0  0
   33.4075   30.8828   24.5856 C   0  0  0  0  0  0  0  0  0  0  0  0
   33.2152   29.9308   25.8057 C   0  0  1  0  0  0  0  0  0  0  0  0
   33.5890   28.4278   25.7632 C   0  0  0  0  0  0  0  0  0  0  0  0
   33.1760   27.4689   24.6737 C   0  0  0  0  0  0  0  0  0  0  0  0
   34.6391   27.7537   24.9097 C   0  0  0  0  0  0  0  0  0  0  0  0
   33.8936   30.4770   26.9780 N   0  3  0  0  0  0  0  0  0  0  0  0
   33.0444   30.7837   27.9606 C   0  0  0  0  0  0  0  0  0  0  0  0
   33.4604   31.2622   29.1376 N   0  0  0  0  0  0  0  0  0  0  0  0
   31.7726   30.5424   27.6123 N   0  0  0  0  0  0  0  0  0  0  0  0
   30.5947   30.7646   28.4585 C   0  0  0  0  0  0  0  0  0  0  0  0
   31.7522   30.0285   26.2818 C   0  0  0  0  0  0  0  0  0  0  0  0
   30.7267   29.7172   25.6690 O   0  0  0  0  0  0  0  0  0  0  0  0
   33.2341   32.2830   24.7956 C   0  0  0  0  0  0  0  0  0  0  0  0
   33.3061   35.3005   25.1797 C   0  0  0  0  0  0  0  0  0  0  0  0
   32.9935   38.5340   28.1358 H   0  0  0  0  0  0  0  0  0  0  0  0
   32.9799   39.1793   26.4975 H   0  0  0  0  0  0  0  0  0  0  0  0
   31.6222   38.2169   27.0667 H   0  0  0  0  0  0  0  0  0  0  0  0
   32.0665   38.4337   24.5776 H   0  0  0  0  0  0  0  0  0  0  0  0
   31.5490   37.3817   22.4345 H   0  0  0  0  0  0  0  0  0  0  0  0
   32.1370   35.0173   21.9951 H   0  0  0  0  0  0  0  0  0  0  0  0
   33.6844   33.4596   21.6430 H   0  0  0  0  0  0  0  0  0  0  0  0
   34.0206   31.0813   21.2061 H   0  0  0  0  0  0  0  0  0  0  0  0
   33.8334   29.4332   22.9881 H   0  0  0  0  0  0  0  0  0  0  0  0
   33.5206   27.9900   26.7609 H   0  0  0  0  0  0  0  0  0  0  0  0
   32.7960   26.4945   24.9745 H   0  0  0  0  0  0  0  0  0  0  0  0
   32.7008   27.8861   23.7975 H   0  0  0  0  0  0  0  0  0  0  0  0
   35.1612   28.3185   24.1517 H   0  0  0  0  0  0  0  0  0  0  0  0
   35.2297   26.9713   25.3861 H   0  0  0  0  0  0  0  0  0  0  0  0
   34.8997   30.6495   27.0019 H   0  0  0  0  0  0  0  0  0  0  0  0
   32.8472   31.5861   29.8846 H   0  0  0  0  0  0  0  0  0  0  0  0
   30.6331   31.7850   28.8230 H   0  0  0  0  0  0  0  0  0  0  0  0
   30.5987   30.0897   29.3155 H   0  0  0  0  0  0  0  0  0  0  0  0
   29.6591   30.6347   27.9135 H   0  0  0  0  0  0  0  0  0  0  0  0
   32.9875   32.6420   25.7824 H   0  0  0  0  0  0  0  0  0  0  0  0
   33.7794   34.7354   25.9627 H   0  0  0  0  0  0  0  0  0  0  0  0
   34.4594   31.4240   29.2722 H   0  0  0  0  0  0  0  0  0  0  0  0
  1  2  1  0  0  0  0
  1 26  1  0  0  0  0
  1 27  1  0  0  0  0
  1 28  1  0  0  0  0
  2  3  1  0  0  0  0
  3  4  2  0  0  0  0
  3 25  1  0  0  0  0
  4  5  1  0  0  0  0
  4 29  1  0  0  0  0
  5  6  2  0  0  0  0
  5 30  1  0  0  0  0
  6  7  1  0  0  0  0
  6 31  1  0  0  0  0
  7  8  1  0  0  0  0
  7 25  2  0  0  0  0
  8  9  2  0  0  0  0
  8 24  1  0  0  0  0
  9 10  1  0  0  0  0
  9 32  1  0  0  0  0
 10 11  2  0  0  0  0
 10 33  1  0  0  0  0
 11 12  1  0  0  0  0
 11 34  1  0  0  0  0
 12 13  1  0  0  0  0
 12 24  2  0  0  0  0
 13 14  1  0  0  0  0
 13 17  1  0  0  0  0
 13 22  1  0  0  0  0
 14 15  1  0  0  0  0
 14 16  1  0  0  0  0
 14 35  1  0  0  0  0
 15 16  1  0  0  0  0
 15 36  1  0  0  0  0
 15 37  1  0  0  0  0
 16 38  1  0  0  0  0
 16 39  1  0  0  0  0
 17 18  2  0  0  0  0
 17 40  1  0  0  0  0
 18 19  1  0  0  0  0
 18 20  1  0  0  0  0
 19 41  1  0  0  0  0
 19 47  1  0  0  0  0
 20 21  1  0  0  0  0
 20 22  1  0  0  0  0
 21 42  1  0  0  0  0
 21 43  1  0  0  0  0
 21 44  1  0  0  0  0
 22 23  2  0  0  0  0
 24 45  1  0  0  0  0
 25 46  1  0  0  0  0
M  END
>  <r_user_dG.exp>
-10.023000

$$$$
CAT-4p
  PyMOL2.3          3D                             0

 45 48  0  0  1  0  0  0  0  0999 V2000
   30.4949   31.1314   28.4060 C   0  0  0  0  0  0  0  0  0  0  0  0
   31.6821   30.9109   27.5747 N   0  0  0  0  0  0  0  0  0  0  0  0
   32.9661   31.0790   27.9312 C   0  0  0  0  0  0  0  0  0  0  0  0
   33.4118   31.4238   29.1430 N   0  0  0  0  0  0  0  0  0  0  0  0
   33.7971   30.8367   26.9173 N   0  3  0  0  0  0  0  0  0  0  0  0
   33.0918   30.3491   25.7373 C   0  0  2  0  0  0  0  0  0  0  0  0
   33.4811   28.8531   25.6020 C   0  0  0  0  0  0  0  0  0  0  0  0
   32.9850   27.8678   26.5013 C   0  0  0  0  0  0  0  0  0  0  0  0
   33.4176   26.5281   26.4428 C   0  0  0  0  0  0  0  0  0  0  0  0
   34.3714   26.1393   25.4897 C   0  0  0  0  0  0  0  0  0  0  0  0
   34.9009   27.1023   24.6157 C   0  0  0  0  0  0  0  0  0  0  0  0
   34.4681   28.4374   24.6868 C   0  0  0  0  0  0  0  0  0  0  0  0
   33.2545   31.3161   24.5344 C   0  0  0  0  0  0  0  0  0  0  0  0
   33.3155   30.8702   23.1926 C   0  0  0  0  0  0  0  0  0  0  0  0
   33.4590   31.7905   22.1442 C   0  0  0  0  0  0  0  0  0  0  0  0
   33.4016   33.1699   22.3979 C   0  0  0  0  0  0  0  0  0  0  0  0
   33.2287   33.6659   23.7082 C   0  0  0  0  0  0  0  0  0  0  0  0
   32.9595   35.1087   23.9504 C   0  0  0  0  0  0  0  0  0  0  0  0
   32.3529   35.9204   22.9601 C   0  0  0  0  0  0  0  0  0  0  0  0
   31.9691   37.2004   23.1436 N   0  0  0  0  0  0  0  0  0  0  0  0
   32.1767   37.7550   24.3515 C   0  0  0  0  0  0  0  0  0  0  0  0
   32.8055   37.0736   25.4041 C   0  0  0  0  0  0  0  0  0  0  0  0
   33.0597   37.8528   26.9234 Cl  0  0  0  0  0  0  0  0  0  0  0  0
   33.2068   35.7408   25.1910 C   0  0  0  0  0  0  0  0  0  0  0  0
   33.2266   32.7202   24.7630 C   0  0  0  0  0  0  0  0  0  0  0  0
   31.6354   30.4834   26.2174 C   0  0  0  0  0  0  0  0  0  0  0  0
   30.5951   30.2538   25.5886 O   0  0  0  0  0  0  0  0  0  0  0  0
   30.1563   32.1571   28.2740 H   0  0  0  0  0  0  0  0  0  0  0  0
   29.6791   30.4695   28.1163 H   0  0  0  0  0  0  0  0  0  0  0  0
   30.7156   30.9580   29.4619 H   0  0  0  0  0  0  0  0  0  0  0  0
   34.4165   31.5262   29.2883 H   0  0  0  0  0  0  0  0  0  0  0  0
   34.8136   30.9026   26.9599 H   0  0  0  0  0  0  0  0  0  0  0  0
   32.2805   28.1141   27.2796 H   0  0  0  0  0  0  0  0  0  0  0  0
   33.0314   25.8019   27.1419 H   0  0  0  0  0  0  0  0  0  0  0  0
   34.7166   25.1168   25.4534 H   0  0  0  0  0  0  0  0  0  0  0  0
   35.6681   26.8412   23.9061 H   0  0  0  0  0  0  0  0  0  0  0  0
   34.9300   29.1554   24.0382 H   0  0  0  0  0  0  0  0  0  0  0  0
   33.2635   29.8234   22.9273 H   0  0  0  0  0  0  0  0  0  0  0  0
   33.5741   31.4369   21.1292 H   0  0  0  0  0  0  0  0  0  0  0  0
   33.4517   33.8402   21.5528 H   0  0  0  0  0  0  0  0  0  0  0  0
   32.0990   35.5120   21.9926 H   0  0  0  0  0  0  0  0  0  0  0  0
   31.8394   38.7719   24.4783 H   0  0  0  0  0  0  0  0  0  0  0  0
   33.6888   35.2047   25.9902 H   0  0  0  0  0  0  0  0  0  0  0  0
   33.1073   33.0814   25.7709 H   0  0  0  0  0  0  0  0  0  0  0  0
   32.8167   31.6959   29.9250 H   0  0  0  0  0  0  0  0  0  0  0  0
  1  2  1  0  0  0  0
  1 28  1  0  0  0  0
  1 29  1  0  0  0  0
  1 30  1  0  0  0  0
  2  3  1  0  0  0  0
  2 26  1  0  0  0  0
  3  4  1  0  0  0  0
  3  5  2  0  0  0  0
  4 31  1  0  0  0  0
  4 45  1  0  0  0  0
  5  6  1  0  0  0  0
  5 32  1  0  0  0  0
  6  7  1  0  0  0  0
  6 13  1  0  0  0  0
  6 26  1  0  0  0  0
  7  8  2  0  0  0  0
  7 12  1  0  0  0  0
  8  9  1  0  0  0  0
  8 33  1  0  0  0  0
  9 10  2  0  0  0  0
  9 34  1  0  0  0  0
 10 11  1  0  0  0  0
 10 35  1  0  0  0  0
 11 12  2  0  0  0  0
 11 36  1  0  0  0  0
 12 37  1  0  0  0  0
 13 14  2  0  0  0  0
 13 25  1  0  0  0  0
 14 15  1  0  0  0  0
 14 38  1  0  0  0  0
 15 16  2  0  0  0  0
 15 39  1  0  0  0  0
 16 17  1  0  0  0  0
 16 40  1  0  0  0  0
 17 18  1  0  0  0  0
 17 25  2  0  0  0  0
 18 19  2  0  0  0  0
 18 24  1  0  0  0  0
 19 20  1  0  0  0  0
 19 41  1  0  0  0  0
 20 21  2  0  0  0  0
 21 22  1  0  0  0  0
 21 42  1  0  0  0  0
 22 23  1  0  0  0  0
 22 24  2  0  0  0  0
 24 43  1  0  0  0  0
 25 44  1  0  0  0  0
 26 27  2  0  0  0  0
M  END
>  <r_user_dG.exp>
-10.083000

$$$$
CAT-17h
  PyMOL2.3          3D                             0

 42 45  0  0  1  0  0  0  0  0999 V2000
   30.5613   30.9366   28.2954 C   0  0  0  0  0  0  0  0  0  0  0  0
   31.7772   30.7342   27.4964 N   0  0  0  0  0  0  0  0  0  0  0  0
   33.0333   30.9905   27.8894 C   0  0  0  0  0  0  0  0  0  0  0  0
   33.4182   31.3991   29.1038 N   0  0  0  0  0  0  0  0  0  0  0  0
   33.9059   30.7712   26.9077 N   0  3  0  0  0  0  0  0  0  0  0  0
   33.2813   30.2820   25.6872 C   0  0  1  0  0  0  0  0  0  0  0  0
   33.4349   31.2905   24.5333 C   0  0  0  0  0  0  0  0  0  0  0  0
   33.7652   30.8624   23.2258 C   0  0  0  0  0  0  0  0  0  0  0  0
   33.8400   31.7890   22.1757 C   0  0  0  0  0  0  0  0  0  0  0  0
   33.5622   33.1453   22.4102 C   0  0  0  0  0  0  0  0  0  0  0  0
   33.2530   33.6203   23.7028 C   0  0  0  0  0  0  0  0  0  0  0  0
   32.9346   35.0510   23.9306 C   0  0  0  0  0  0  0  0  0  0  0  0
   32.3631   35.8534   22.9166 C   0  0  0  0  0  0  0  0  0  0  0  0
   31.9937   37.1400   23.0783 N   0  0  0  0  0  0  0  0  0  0  0  0
   32.1839   37.7060   24.2841 C   0  0  0  0  0  0  0  0  0  0  0  0
   32.7749   37.0279   25.3612 C   0  0  0  0  0  0  0  0  0  0  0  0
   33.0098   37.8224   26.8755 Cl  0  0  0  0  0  0  0  0  0  0  0  0
   33.1592   35.6877   25.1717 C   0  0  0  0  0  0  0  0  0  0  0  0
   33.2129   32.6751   24.7561 C   0  0  0  0  0  0  0  0  0  0  0  0
   33.9260   28.9188   25.3795 C   0  0  0  0  0  0  0  0  0  0  0  0
   33.5880   27.6407   26.1230 C   0  0  0  0  0  0  0  0  0  0  0  0
   33.2279   27.7815   24.6651 C   0  0  0  0  0  0  0  0  0  0  0  0
   31.8087   30.2547   26.1495 C   0  0  0  0  0  0  0  0  0  0  0  0
   30.8076   29.9282   25.5043 O   0  0  0  0  0  0  0  0  0  0  0  0
   29.7219   30.3600   27.9058 H   0  0  0  0  0  0  0  0  0  0  0  0
   30.7271   30.6404   29.3312 H   0  0  0  0  0  0  0  0  0  0  0  0
   30.2874   31.9912   28.2791 H   0  0  0  0  0  0  0  0  0  0  0  0
   32.7856   31.6450   29.8624 H   0  0  0  0  0  0  0  0  0  0  0  0
   34.9148   30.9177   26.9827 H   0  0  0  0  0  0  0  0  0  0  0  0
   33.9555   29.8253   22.9903 H   0  0  0  0  0  0  0  0  0  0  0  0
   34.0904   31.4564   21.1773 H   0  0  0  0  0  0  0  0  0  0  0  0
   33.5863   33.8172   21.5667 H   0  0  0  0  0  0  0  0  0  0  0  0
   32.1517   35.4408   21.9422 H   0  0  0  0  0  0  0  0  0  0  0  0
   31.8601   38.7310   24.3913 H   0  0  0  0  0  0  0  0  0  0  0  0
   33.6282   35.1538   25.9802 H   0  0  0  0  0  0  0  0  0  0  0  0
   32.9550   33.0118   25.7487 H   0  0  0  0  0  0  0  0  0  0  0  0
   34.9823   29.0221   25.1427 H   0  0  0  0  0  0  0  0  0  0  0  0
   34.4110   26.9717   26.3674 H   0  0  0  0  0  0  0  0  0  0  0  0
   32.7700   27.6446   26.8405 H   0  0  0  0  0  0  0  0  0  0  0  0
   32.1740   27.8808   24.4328 H   0  0  0  0  0  0  0  0  0  0  0  0
   33.8075   27.2129   23.9396 H   0  0  0  0  0  0  0  0  0  0  0  0
   34.4119   31.5438   29.2858 H   0  0  0  0  0  0  0  0  0  0  0  0
  1  2  1  0  0  0  0
  1 25  1  0  0  0  0
  1 26  1  0  0  0  0
  1 27  1  0  0  0  0
  2  3  1  0  0  0  0
  2 23  1  0  0  0  0
  3  4  1  0  0  0  0
  3  5  2  0  0  0  0
  4 28  1  0  0  0  0
  4 42  1  0  0  0  0
  5  6  1  0  0  0  0
  5 29  1  0  0  0  0
  6  7  1  0  0  0  0
  6 20  1  0  0  0  0
  6 23  1  0  0  0  0
  7  8  2  0  0  0  0
  7 19  1  0  0  0  0
  8  9  1  0  0  0  0
  8 30  1  0  0  0  0
  9 10  2  0  0  0  0
  9 31  1  0  0  0  0
 10 11  1  0  0  0  0
 10 32  1  0  0  0  0
 11 12  1  0  0  0  0
 11 19  2  0  0  0  0
 12 13  2  0  0  0  0
 12 18  1  0  0  0  0
 13 14  1  0  0  0  0
 13 33  1  0  0  0  0
 14 15  2  0  0  0  0
 15 16  1  0  0  0  0
 15 34  1  0  0  0  0
 16 17  1  0  0  0  0
 16 18  2  0  0  0  0
 18 35  1  0  0  0  0
 19 36  1  0  0  0  0
 20 21  1  0  0  0  0
 20 22  1  0  0  0  0
 20 37  1  0  0  0  0
 21 22  1  0  0  0  0
 21 38  1  0  0  0  0
 21 39  1  0  0  0  0
 22 40  1  0  0  0  0
 22 41  1  0  0  0  0
 23 24  2  0  0  0  0
M  END
>  <r_user_dG.exp>
-10.333000

$$$$
CAT-4b
  PyMOL2.3          3D                             0

 50 53  0  0  1  0  0  0  0  0999 V2000
   32.7250   38.4319   27.2241 C   0  0  0  0  0  0  0  0  0  0  0  0
   33.3477   37.2496   26.7541 O   0  0  0  0  0  0  0  0  0  0  0  0
   33.0203   36.8116   25.4913 C   0  0  0  0  0  0  0  0  0  0  0  0
   32.4109   37.6138   24.5024 C   0  0  0  0  0  0  0  0  0  0  0  0
   32.1538   37.0768   23.2285 C   0  0  0  0  0  0  0  0  0  0  0  0
   32.4650   35.7315   22.9427 C   0  0  0  0  0  0  0  0  0  0  0  0
   33.0243   34.8922   23.9328 C   0  0  0  0  0  0  0  0  0  0  0  0
   33.2492   33.4448   23.7009 C   0  0  0  0  0  0  0  0  0  0  0  0
   33.5286   32.9305   22.4184 C   0  0  0  0  0  0  0  0  0  0  0  0
   33.7279   31.5527   22.2134 C   0  0  0  0  0  0  0  0  0  0  0  0
   33.6097   30.6478   23.2844 C   0  0  0  0  0  0  0  0  0  0  0  0
   33.3022   31.1239   24.5801 C   0  0  0  0  0  0  0  0  0  0  0  0
   33.1100   30.1774   25.7789 C   0  0  1  0  0  0  0  0  0  0  0  0
   33.5520   28.7145   25.5371 C   0  0  0  0  0  0  0  0  0  0  0  0
   34.9058   28.3695   25.7366 C   0  0  0  0  0  0  0  0  0  0  0  0
   35.3733   27.0583   25.5497 C   0  0  0  0  0  0  0  0  0  0  0  0
   34.4764   26.0451   25.1907 C   0  0  0  0  0  0  0  0  0  0  0  0
   33.1234   26.3578   24.9818 C   0  0  0  0  0  0  0  0  0  0  0  0
   32.6682   27.6825   25.1390 C   0  0  0  0  0  0  0  0  0  0  0  0
   33.8106   30.6923   26.9573 N   0  3  0  0  0  0  0  0  0  0  0  0
   32.9897   30.9655   27.9694 C   0  0  0  0  0  0  0  0  0  0  0  0
   33.4433   31.3831   29.1547 N   0  0  0  0  0  0  0  0  0  0  0  0
   31.7074   30.7600   27.6364 N   0  0  0  0  0  0  0  0  0  0  0  0
   30.5279   31.0306   28.4682 C   0  0  0  0  0  0  0  0  0  0  0  0
   31.6552   30.2850   26.2921 C   0  0  0  0  0  0  0  0  0  0  0  0
   30.6047   30.0483   25.6834 O   0  0  0  0  0  0  0  0  0  0  0  0
   33.1492   32.5213   24.7662 C   0  0  0  0  0  0  0  0  0  0  0  0
   33.3183   35.4723   25.1863 C   0  0  0  0  0  0  0  0  0  0  0  0
   32.9769   38.5858   28.2734 H   0  0  0  0  0  0  0  0  0  0  0  0
   33.0474   39.3102   26.6743 H   0  0  0  0  0  0  0  0  0  0  0  0
   31.6431   38.3536   27.1422 H   0  0  0  0  0  0  0  0  0  0  0  0
   32.1479   38.6434   24.6918 H   0  0  0  0  0  0  0  0  0  0  0  0
   31.6956   37.7029   22.4788 H   0  0  0  0  0  0  0  0  0  0  0  0
   32.2248   35.3346   21.9671 H   0  0  0  0  0  0  0  0  0  0  0  0
   33.5952   33.5969   21.5731 H   0  0  0  0  0  0  0  0  0  0  0  0
   33.9622   31.1946   21.2208 H   0  0  0  0  0  0  0  0  0  0  0  0
   33.7514   29.5937   23.0867 H   0  0  0  0  0  0  0  0  0  0  0  0
   35.6061   29.1164   26.0626 H   0  0  0  0  0  0  0  0  0  0  0  0
   36.4186   26.8333   25.7102 H   0  0  0  0  0  0  0  0  0  0  0  0
   34.8326   25.0343   25.0943 H   0  0  0  0  0  0  0  0  0  0  0  0
   32.4332   25.5757   24.7033 H   0  0  0  0  0  0  0  0  0  0  0  0
   31.6257   27.8810   24.9661 H   0  0  0  0  0  0  0  0  0  0  0  0
   34.8220   30.8218   26.9816 H   0  0  0  0  0  0  0  0  0  0  0  0
   32.8508   31.6675   29.9328 H   0  0  0  0  0  0  0  0  0  0  0  0
   29.7053   30.3586   28.2220 H   0  0  0  0  0  0  0  0  0  0  0  0
   30.7583   30.9096   29.5261 H   0  0  0  0  0  0  0  0  0  0  0  0
   30.1930   32.0534   28.2983 H   0  0  0  0  0  0  0  0  0  0  0  0
   32.9034   32.8963   25.7484 H   0  0  0  0  0  0  0  0  0  0  0  0
   33.7688   34.8743   25.9585 H   0  0  0  0  0  0  0  0  0  0  0  0
   34.4478   31.5101   29.2881 H   0  0  0  0  0  0  0  0  0  0  0  0
  1  2  1  0  0  0  0
  1 29  1  0  0  0  0
  1 30  1  0  0  0  0
  1 31  1  0  0  0  0
  2  3  1  0  0  0  0
  3  4  2  0  0  0  0
  3 28  1  0  0  0  0
  4  5  1  0  0  0  0
  4 32  1  0  0  0  0
  5  6  2  0  0  0  0
  5 33  1  0  0  0  0
  6  7  1  0  0  0  0
  6 34  1  0  0  0  0
  7  8  1  0  0  0  0
  7 28  2  0  0  0  0
  8  9  2  0  0  0  0
  8 27  1  0  0  0  0
  9 10  1  0  0  0  0
  9 35  1  0  0  0  0
 10 11  2  0  0  0  0
 10 36  1  0  0  0  0
 11 12  1  0  0  0  0
 11 37  1  0  0  0  0
 12 13  1  0  0  0  0
 12 27  2  0  0  0  0
 13 14  1  0  0  0  0
 13 20  1  0  0  0  0
 13 25  1  0  0  0  0
 14 15  2  0  0  0  0
 14 19  1  0  0  0  0
 15 16  1  0  0  0  0
 15 38  1  0  0  0  0
 16 17  2  0  0  0  0
 16 39  1  0  0  0  0
 17 18  1  0  0  0  0
 17 40  1  0  0  0  0
 18 19  2  0  0  0  0
 18 41  1  0  0  0  0
 19 42  1  0  0  0  0
 20 21  2  0  0  0  0
 20 43  1  0  0  0  0
 21 22  1  0  0  0  0
 21 23  1  0  0  0  0
 22 44  1  0  0  0  0
 22 50  1  0  0  0  0
 23 24  1  0  0  0  0
 23 25  1  0  0  0  0
 24 45  1  0  0  0  0
 24 46  1  0  0  0  0
 24 47  1  0  0  0  0
 25 26  2  0  0  0  0
 27 48  1  0  0  0  0
 28 49  1  0  0  0  0
M  END
>  <r_user_dG.exp>
-9.633000

$$$$
CAT-17g
  PyMOL2.3          3D                             0

 42 45  0  0  1  0  0  0  0  0999 V2000
   30.5790   30.9030   28.3070 C   0  0  0  0  0  0  0  0  0  0  0  0
   31.7890   30.6763   27.5055 N   0  0  0  0  0  0  0  0  0  0  0  0
   33.0477   30.9364   27.8869 C   0  0  0  0  0  0  0  0  0  0  0  0
   33.4364   31.3761   29.0899 N   0  0  0  0  0  0  0  0  0  0  0  0
   33.9156   30.6882   26.9068 N   0  3  0  0  0  0  0  0  0  0  0  0
   33.2806   30.1875   25.6946 C   0  0  1  0  0  0  0  0  0  0  0  0
   33.4244   31.1866   24.5311 C   0  0  0  0  0  0  0  0  0  0  0  0
   33.7229   30.7503   23.2185 C   0  0  0  0  0  0  0  0  0  0  0  0
   33.7967   31.6748   22.1653 C   0  0  0  0  0  0  0  0  0  0  0  0
   33.5506   33.0368   22.4014 C   0  0  0  0  0  0  0  0  0  0  0  0
   33.2703   33.5175   23.6979 C   0  0  0  0  0  0  0  0  0  0  0  0
   32.9918   34.9543   23.9356 C   0  0  0  0  0  0  0  0  0  0  0  0
   32.4488   35.7912   22.9335 C   0  0  0  0  0  0  0  0  0  0  0  0
   32.1212   37.0870   23.1175 N   0  0  0  0  0  0  0  0  0  0  0  0
   32.3300   37.6265   24.3338 C   0  0  0  0  0  0  0  0  0  0  0  0
   32.8993   36.9109   25.3988 C   0  0  0  0  0  0  0  0  0  0  0  0
   33.1134   37.4974   26.6009 F   0  0  0  0  0  0  0  0  0  0  0  0
   33.2359   35.5641   25.1851 C   0  0  0  0  0  0  0  0  0  0  0  0
   33.2271   32.5741   24.7527 C   0  0  0  0  0  0  0  0  0  0  0  0
   33.9210   28.8217   25.3895 C   0  0  0  0  0  0  0  0  0  0  0  0
   33.5882   27.5496   26.1454 C   0  0  0  0  0  0  0  0  0  0  0  0
   33.2141   27.6803   24.6899 C   0  0  0  0  0  0  0  0  0  0  0  0
   31.8113   30.1689   26.1685 C   0  0  0  0  0  0  0  0  0  0  0  0
   30.8053   29.8324   25.5367 O   0  0  0  0  0  0  0  0  0  0  0  0
   30.7403   30.5992   29.3413 H   0  0  0  0  0  0  0  0  0  0  0  0
   30.3292   31.9637   28.2957 H   0  0  0  0  0  0  0  0  0  0  0  0
   29.7257   30.3474   27.9173 H   0  0  0  0  0  0  0  0  0  0  0  0
   32.8062   31.6358   29.8460 H   0  0  0  0  0  0  0  0  0  0  0  0
   34.9232   30.8474   26.9708 H   0  0  0  0  0  0  0  0  0  0  0  0
   33.8913   29.7094   22.9831 H   0  0  0  0  0  0  0  0  0  0  0  0
   34.0256   31.3392   21.1633 H   0  0  0  0  0  0  0  0  0  0  0  0
   33.5785   33.7091   21.5584 H   0  0  0  0  0  0  0  0  0  0  0  0
   32.2287   35.4031   21.9510 H   0  0  0  0  0  0  0  0  0  0  0  0
   32.0388   38.6588   24.4610 H   0  0  0  0  0  0  0  0  0  0  0  0
   33.6877   35.0061   25.9859 H   0  0  0  0  0  0  0  0  0  0  0  0
   32.9908   32.9156   25.7495 H   0  0  0  0  0  0  0  0  0  0  0  0
   34.9749   28.9223   25.1397 H   0  0  0  0  0  0  0  0  0  0  0  0
   34.4123   26.8809   26.3869 H   0  0  0  0  0  0  0  0  0  0  0  0
   32.7772   27.5605   26.8707 H   0  0  0  0  0  0  0  0  0  0  0  0
   32.1580   27.7790   24.4665 H   0  0  0  0  0  0  0  0  0  0  0  0
   33.7861   27.1055   23.9633 H   0  0  0  0  0  0  0  0  0  0  0  0
   34.4312   31.5250   29.2648 H   0  0  0  0  0  0  0  0  0  0  0  0
  1  2  1  0  0  0  0
  1 25  1  0  0  0  0
  1 26  1  0  0  0  0
  1 27  1  0  0  0  0
  2  3  1  0  0  0  0
  2 23  1  0  0  0  0
  3  4  1  0  0  0  0
  3  5  2  0  0  0  0
  4 28  1  0  0  0  0
  4 42  1  0  0  0  0
  5  6  1  0  0  0  0
  5 29  1  0  0  0  0
  6  7  1  0  0  0  0
  6 20  1  0  0  0  0
  6 23  1  0  0  0  0
  7  8  2  0  0  0  0
  7 19  1  0  0  0  0
  8  9  1  0  0  0  0
  8 30  1  0  0  0  0
  9 10  2  0  0  0  0
  9 31  1  0  0  0  0
 10 11  1  0  0  0  0
 10 32  1  0  0  0  0
 11 12  1  0  0  0  0
 11 19  2  0  0  0  0
 12 13  2  0  0  0  0
 12 18  1  0  0  0  0
 13 14  1  0  0  0  0
 13 33  1  0  0  0  0
 14 15  2  0  0  0  0
 15 16  1  0  0  0  0
 15 34  1  0  0  0  0
 16 18  2  0  0  0  0
 16 17  1  0  0  0  0
 18 35  1  0  0  0  0
 19 36  1  0  0  0  0
 20 21  1  0  0  0  0
 20 22  1  0  0  0  0
 20 37  1  0  0  0  0
 21 22  1  0  0  0  0
 21 38  1  0  0  0  0
 21 39  1  0  0  0  0
 22 40  1  0  0  0  0
 22 41  1  0  0  0  0
 23 24  2  0  0  0  0
M  END
>  <r_user_dG.exp>
-9.743000

$$$$
CAT-4d
  PyMOL2.3          3D                             0

 53 56  0  0  1  0  0  0  0  0999 V2000
   33.3792   39.0440   28.2752 C   0  0  0  0  0  0  0  0  0  0  0  0
   32.7290   38.5624   26.9788 C   0  0  0  0  0  0  0  0  0  0  0  0
   33.2882   37.3240   26.5763 O   0  0  0  0  0  0  0  0  0  0  0  0
   32.8848   36.8063   25.3634 C   0  0  0  0  0  0  0  0  0  0  0  0
   32.1592   37.5258   24.3838 C   0  0  0  0  0  0  0  0  0  0  0  0
   31.8213   36.9123   23.1657 C   0  0  0  0  0  0  0  0  0  0  0  0
   32.1838   35.5747   22.9177 C   0  0  0  0  0  0  0  0  0  0  0  0
   32.8676   34.8198   23.8958 C   0  0  0  0  0  0  0  0  0  0  0  0
   33.1602   33.3852   23.6894 C   0  0  0  0  0  0  0  0  0  0  0  0
   33.4806   32.8737   22.4161 C   0  0  0  0  0  0  0  0  0  0  0  0
   33.7308   31.5027   22.2278 C   0  0  0  0  0  0  0  0  0  0  0  0
   33.6240   30.6050   23.3061 C   0  0  0  0  0  0  0  0  0  0  0  0
   33.2826   31.0825   24.5938 C   0  0  0  0  0  0  0  0  0  0  0  0
   33.1052   30.1404   25.7972 C   0  0  1  0  0  0  0  0  0  0  0  0
   33.5567   28.6809   25.5544 C   0  0  0  0  0  0  0  0  0  0  0  0
   32.6806   27.6445   25.1501 C   0  0  0  0  0  0  0  0  0  0  0  0
   33.1464   26.3243   24.9857 C   0  0  0  0  0  0  0  0  0  0  0  0
   34.5021   26.0220   25.1935 C   0  0  0  0  0  0  0  0  0  0  0  0
   35.3915   27.0407   25.5553 C   0  0  0  0  0  0  0  0  0  0  0  0
   34.9138   28.3471   25.7490 C   0  0  0  0  0  0  0  0  0  0  0  0
   33.8097   30.6682   26.9675 N   0  3  0  0  0  0  0  0  0  0  0  0
   32.9924   30.9447   27.9817 C   0  0  0  0  0  0  0  0  0  0  0  0
   33.4488   31.3778   29.1601 N   0  0  0  0  0  0  0  0  0  0  0  0
   31.7097   30.7260   27.6592 N   0  0  0  0  0  0  0  0  0  0  0  0
   30.5340   30.9964   28.4965 C   0  0  0  0  0  0  0  0  0  0  0  0
   31.6527   30.2372   26.3200 C   0  0  0  0  0  0  0  0  0  0  0  0
   30.6002   29.9861   25.7206 O   0  0  0  0  0  0  0  0  0  0  0  0
   33.0836   32.4759   24.7662 C   0  0  0  0  0  0  0  0  0  0  0  0
   33.2213   35.4655   25.1014 C   0  0  0  0  0  0  0  0  0  0  0  0
   32.9612   39.9983   28.5916 H   0  0  0  0  0  0  0  0  0  0  0  0
   33.2197   38.3311   29.0792 H   0  0  0  0  0  0  0  0  0  0  0  0
   34.4548   39.1701   28.1600 H   0  0  0  0  0  0  0  0  0  0  0  0
   31.6560   38.4456   27.1139 H   0  0  0  0  0  0  0  0  0  0  0  0
   32.8850   39.3189   26.2168 H   0  0  0  0  0  0  0  0  0  0  0  0
   31.8482   38.5484   24.5312 H   0  0  0  0  0  0  0  0  0  0  0  0
   31.2630   37.4706   22.4293 H   0  0  0  0  0  0  0  0  0  0  0  0
   31.8919   35.1150   21.9842 H   0  0  0  0  0  0  0  0  0  0  0  0
   33.5404   33.5389   21.5685 H   0  0  0  0  0  0  0  0  0  0  0  0
   33.9939   31.1455   21.2425 H   0  0  0  0  0  0  0  0  0  0  0  0
   33.8029   29.5547   23.1194 H   0  0  0  0  0  0  0  0  0  0  0  0
   31.6362   27.8353   24.9778 H   0  0  0  0  0  0  0  0  0  0  0  0
   32.4617   25.5384   24.7039 H   0  0  0  0  0  0  0  0  0  0  0  0
   34.8685   25.0155   25.0930 H   0  0  0  0  0  0  0  0  0  0  0  0
   36.4395   26.8241   25.7098 H   0  0  0  0  0  0  0  0  0  0  0  0
   35.6098   29.0997   26.0716 H   0  0  0  0  0  0  0  0  0  0  0  0
   34.8199   30.8071   26.9844 H   0  0  0  0  0  0  0  0  0  0  0  0
   32.8583   31.6649   29.9388 H   0  0  0  0  0  0  0  0  0  0  0  0
   29.7119   30.3212   28.2576 H   0  0  0  0  0  0  0  0  0  0  0  0
   30.7706   30.8804   29.5536 H   0  0  0  0  0  0  0  0  0  0  0  0
   30.1950   32.0177   28.3249 H   0  0  0  0  0  0  0  0  0  0  0  0
   32.8183   32.8616   25.7399 H   0  0  0  0  0  0  0  0  0  0  0  0
   33.7513   34.9198   25.8635 H   0  0  0  0  0  0  0  0  0  0  0  0
   34.4532   31.5116   29.2878 H   0  0  0  0  0  0  0  0  0  0  0  0
  1  2  1  0  0  0  0
  1 30  1  0  0  0  0
  1 31  1  0  0  0  0
  1 32  1  0  0  0  0
  2  3  1  0  0  0  0
  2 33  1  0  0  0  0
  2 34  1  0  0  0  0
  3  4  1  0  0  0  0
  4  5  2  0  0  0  0
  4 29  1  0  0  0  0
  5  6  1  0  0  0  0
  5 35  1  0  0  0  0
  6  7  2  0  0  0  0
  6 36  1  0  0  0  0
  7  8  1  0  0  0  0
  7 37  1  0  0  0  0
  8  9  1  0  0  0  0
  8 29  2  0  0  0  0
  9 10  2  0  0  0  0
  9 28  1  0  0  0  0
 10 11  1  0  0  0  0
 10 38  1  0  0  0  0
 11 12  2  0  0  0  0
 11 39  1  0  0  0  0
 12 13  1  0  0  0  0
 12 40  1  0  0  0  0
 13 14  1  0  0  0  0
 13 28  2  0  0  0  0
 14 15  1  0  0  0  0
 14 21  1  0  0  0  0
 14 26  1  0  0  0  0
 15 16  2  0  0  0  0
 15 20  1  0  0  0  0
 16 17  1  0  0  0  0
 16 41  1  0  0  0  0
 17 18  2  0  0  0  0
 17 42  1  0  0  0  0
 18 19  1  0  0  0  0
 18 43  1  0  0  0  0
 19 20  2  0  0  0  0
 19 44  1  0  0  0  0
 20 45  1  0  0  0  0
 21 22  2  0  0  0  0
 21 46  1  0  0  0  0
 22 23  1  0  0  0  0
 22 24  1  0  0  0  0
 23 47  1  0  0  0  0
 23 53  1  0  0  0  0
 24 25  1  0  0  0  0
 24 26  1  0  0  0  0
 25 48  1  0  0  0  0
 25 49  1  0  0  0  0
 25 50  1  0  0  0  0
 26 27  2  0  0  0  0
 28 51  1  0  0  0  0
 29 52  1  0  0  0  0
M  END
>  <r_user_dG.exp>
-9.113000

$$$$
CAT-4m
  PyMOL2.3          3D                             0

 48 51  0  0  1  0  0  0  0  0999 V2000
   32.9617   37.6580   26.5668 C   0  0  0  0  0  0  0  0  0  0  0  0
   32.7916   36.9274   25.2499 C   0  0  0  0  0  0  0  0  0  0  0  0
   32.2397   37.5854   24.1407 C   0  0  0  0  0  0  0  0  0  0  0  0
   32.0744   36.9900   22.9504 N   0  0  0  0  0  0  0  0  0  0  0  0
   32.4247   35.6943   22.8304 C   0  0  0  0  0  0  0  0  0  0  0  0
   32.9539   34.9087   23.8782 C   0  0  0  0  0  0  0  0  0  0  0  0
   33.2342   33.4626   23.6977 C   0  0  0  0  0  0  0  0  0  0  0  0
   33.5588   32.9346   22.4301 C   0  0  0  0  0  0  0  0  0  0  0  0
   33.7934   31.5614   22.2458 C   0  0  0  0  0  0  0  0  0  0  0  0
   33.6639   30.6690   23.3233 C   0  0  0  0  0  0  0  0  0  0  0  0
   33.3156   31.1546   24.6049 C   0  0  0  0  0  0  0  0  0  0  0  0
   33.1081   30.2068   25.7996 C   0  0  1  0  0  0  0  0  0  0  0  0
   33.5383   28.7398   25.5573 C   0  0  0  0  0  0  0  0  0  0  0  0
   32.6450   27.7135   25.1648 C   0  0  0  0  0  0  0  0  0  0  0  0
   33.0899   26.3856   25.0058 C   0  0  0  0  0  0  0  0  0  0  0  0
   34.4420   26.0633   25.2055 C   0  0  0  0  0  0  0  0  0  0  0  0
   35.3484   27.0705   25.5583 C   0  0  0  0  0  0  0  0  0  0  0  0
   34.8913   28.3853   25.7479 C   0  0  0  0  0  0  0  0  0  0  0  0
   33.8075   30.7129   26.9803 N   0  3  0  0  0  0  0  0  0  0  0  0
   32.9853   30.9731   27.9940 C   0  0  0  0  0  0  0  0  0  0  0  0
   33.4398   31.3752   29.1833 N   0  0  0  0  0  0  0  0  0  0  0  0
   31.7028   30.7737   27.6580 N   0  0  0  0  0  0  0  0  0  0  0  0
   30.5211   31.0280   28.4918 C   0  0  0  0  0  0  0  0  0  0  0  0
   31.6518   30.3205   26.3067 C   0  0  0  0  0  0  0  0  0  0  0  0
   30.6021   30.1009   25.6905 O   0  0  0  0  0  0  0  0  0  0  0  0
   33.1365   32.5531   24.7760 C   0  0  0  0  0  0  0  0  0  0  0  0
   33.1592   35.5751   25.1059 C   0  0  0  0  0  0  0  0  0  0  0  0
   33.9495   37.4756   26.9909 H   0  0  0  0  0  0  0  0  0  0  0  0
   32.8386   38.7344   26.4406 H   0  0  0  0  0  0  0  0  0  0  0  0
   32.2096   37.3222   27.2781 H   0  0  0  0  0  0  0  0  0  0  0  0
   31.9282   38.6176   24.2066 H   0  0  0  0  0  0  0  0  0  0  0  0
   32.2302   35.2614   21.8612 H   0  0  0  0  0  0  0  0  0  0  0  0
   33.6285   33.5817   21.5708 H   0  0  0  0  0  0  0  0  0  0  0  0
   34.0575   31.1966   21.2630 H   0  0  0  0  0  0  0  0  0  0  0  0
   33.8283   29.6158   23.1388 H   0  0  0  0  0  0  0  0  0  0  0  0
   31.6020   27.9172   24.9992 H   0  0  0  0  0  0  0  0  0  0  0  0
   32.3924   25.6077   24.7347 H   0  0  0  0  0  0  0  0  0  0  0  0
   34.7886   25.0493   25.1052 H   0  0  0  0  0  0  0  0  0  0  0  0
   36.3937   26.8389   25.7090 H   0  0  0  0  0  0  0  0  0  0  0  0
   35.5995   29.1285   26.0647 H   0  0  0  0  0  0  0  0  0  0  0  0
   34.8197   30.8358   27.0075 H   0  0  0  0  0  0  0  0  0  0  0  0
   32.8478   31.6537   29.9642 H   0  0  0  0  0  0  0  0  0  0  0  0
   29.7140   30.3339   28.2561 H   0  0  0  0  0  0  0  0  0  0  0  0
   30.7573   30.9241   29.5501 H   0  0  0  0  0  0  0  0  0  0  0  0
   30.1610   32.0403   28.3113 H   0  0  0  0  0  0  0  0  0  0  0  0
   32.8662   32.9345   25.7492 H   0  0  0  0  0  0  0  0  0  0  0  0
   33.5924   35.0499   25.9398 H   0  0  0  0  0  0  0  0  0  0  0  0
   34.4442   31.5001   29.3175 H   0  0  0  0  0  0  0  0  0  0  0  0
  1  2  1  0  0  0  0
  1 28  1  0  0  0  0
  1 29  1  0  0  0  0
  1 30  1  0  0  0  0
  2  3  2  0  0  0  0
  2 27  1  0  0  0  0
  3  4  1  0  0  0  0
  3 31  1  0  0  0  0
  4  5  2  0  0  0  0
  5  6  1  0  0  0  0
  5 32  1  0  0  0  0
  6  7  1  0  0  0  0
  6 27  2  0  0  0  0
  7  8  2  0  0  0  0
  7 26  1  0  0  0  0
  8  9  1  0  0  0  0
  8 33  1  0  0  0  0
  9 10  2  0  0  0  0
  9 34  1  0  0  0  0
 10 11  1  0  0  0  0
 10 35  1  0  0  0  0
 11 12  1  0  0  0  0
 11 26  2  0  0  0  0
 12 13  1  0  0  0  0
 12 19  1  0  0  0  0
 12 24  1  0  0  0  0
 13 14  2  0  0  0  0
 13 18  1  0  0  0  0
 14 15  1  0  0  0  0
 14 36  1  0  0  0  0
 15 16  2  0  0  0  0
 15 37  1  0  0  0  0
 16 17  1  0  0  0  0
 16 38  1  0  0  0  0
 17 18  2  0  0  0  0
 17 39  1  0  0  0  0
 18 40  1  0  0  0  0
 19 20  2  0  0  0  0
 19 41  1  0  0  0  0
 20 21  1  0  0  0  0
 20 22  1  0  0  0  0
 21 42  1  0  0  0  0
 21 48  1  0  0  0  0
 22 23  1  0  0  0  0
 22 24  1  0  0  0  0
 23 43  1  0  0  0  0
 23 44  1  0  0  0  0
 23 45  1  0  0  0  0
 24 25  2  0  0  0  0
 26 46  1  0  0  0  0
 27 47  1  0  0  0  0
M  END
>  <r_user_dG.exp>
-9.153000

$$$$
CAT-13e
  PyMOL2.3          3D                             0

 46 49  0  0  1  0  0  0  0  0999 V2000
   30.5758   31.2908   28.2965 C   0  0  0  0  0  0  0  0  0  0  0  0
   31.7216   30.9344   27.4528 N   0  0  0  0  0  0  0  0  0  0  0  0
   33.0211   30.9610   27.7941 C   0  0  0  0  0  0  0  0  0  0  0  0
   33.5062   31.2997   28.9976 N   0  0  0  0  0  0  0  0  0  0  0  0
   33.8079   30.5951   26.7742 N   0  3  0  0  0  0  0  0  0  0  0  0
   33.0346   30.3122   25.5604 C   0  0  1  0  0  0  0  0  0  0  0  0
   33.3163   31.3505   24.4560 C   0  0  0  0  0  0  0  0  0  0  0  0
   33.7293   30.9595   23.1603 C   0  0  0  0  0  0  0  0  0  0  0  0
   33.8695   31.9142   22.1431 C   0  0  0  0  0  0  0  0  0  0  0  0
   33.5791   33.2646   22.3989 C   0  0  0  0  0  0  0  0  0  0  0  0
   33.2208   33.7071   23.6883 C   0  0  0  0  0  0  0  0  0  0  0  0
   32.8915   35.1306   23.9395 C   0  0  0  0  0  0  0  0  0  0  0  0
   32.2536   35.9088   22.9449 C   0  0  0  0  0  0  0  0  0  0  0  0
   31.8579   37.2376   23.1975 C   0  0  0  0  0  0  0  0  0  0  0  0
   32.1075   37.8195   24.4514 C   0  0  0  0  0  0  0  0  0  0  0  0
   32.7738   37.0791   25.4407 C   0  0  0  0  0  0  0  0  0  0  0  0
   33.0990   37.8113   26.9685 Cl  0  0  0  0  0  0  0  0  0  0  0  0
   33.1614   35.7480   25.1836 C   0  0  0  0  0  0  0  0  0  0  0  0
   33.1245   32.7356   24.7115 C   0  0  0  0  0  0  0  0  0  0  0  0
   33.1788   28.8333   25.1181 C   0  0  0  0  0  0  0  0  0  0  0  0
   34.5490   28.1596   24.9222 C   0  0  0  0  0  0  0  0  0  0  0  0
   33.9042   26.8353   25.3387 C   0  0  0  0  0  0  0  0  0  0  0  0
   32.8435   27.6650   26.0680 C   0  0  0  0  0  0  0  0  0  0  0  0
   31.6083   30.5270   26.0924 C   0  0  0  0  0  0  0  0  0  0  0  0
   30.5393   30.3776   25.4900 O   0  0  0  0  0  0  0  0  0  0  0  0
   29.7031   30.6825   28.0578 H   0  0  0  0  0  0  0  0  0  0  0  0
   30.3163   32.3355   28.1283 H   0  0  0  0  0  0  0  0  0  0  0  0
   30.8063   31.1500   29.3518 H   0  0  0  0  0  0  0  0  0  0  0  0
   32.9359   31.6363   29.7716 H   0  0  0  0  0  0  0  0  0  0  0  0
   34.8258   30.6523   26.7876 H   0  0  0  0  0  0  0  0  0  0  0  0
   33.9231   29.9310   22.8978 H   0  0  0  0  0  0  0  0  0  0  0  0
   34.1687   31.6039   21.1511 H   0  0  0  0  0  0  0  0  0  0  0  0
   33.6300   33.9660   21.5819 H   0  0  0  0  0  0  0  0  0  0  0  0
   32.0184   35.4706   21.9860 H   0  0  0  0  0  0  0  0  0  0  0  0
   31.3385   37.8070   22.4409 H   0  0  0  0  0  0  0  0  0  0  0  0
   31.7880   38.8312   24.6570 H   0  0  0  0  0  0  0  0  0  0  0  0
   33.6693   35.1963   25.9567 H   0  0  0  0  0  0  0  0  0  0  0  0
   32.8251   33.0622   25.6960 H   0  0  0  0  0  0  0  0  0  0  0  0
   32.5867   28.6663   24.2149 H   0  0  0  0  0  0  0  0  0  0  0  0
   35.3032   28.4972   25.6355 H   0  0  0  0  0  0  0  0  0  0  0  0
   34.9274   28.1631   23.9004 H   0  0  0  0  0  0  0  0  0  0  0  0
   33.4986   26.2747   24.4931 H   0  0  0  0  0  0  0  0  0  0  0  0
   34.5215   26.2072   25.9823 H   0  0  0  0  0  0  0  0  0  0  0  0
   33.1099   27.8559   27.1095 H   0  0  0  0  0  0  0  0  0  0  0  0
   31.8276   27.2770   25.9768 H   0  0  0  0  0  0  0  0  0  0  0  0
   34.5190   31.3552   29.1264 H   0  0  0  0  0  0  0  0  0  0  0  0
  1  2  1  0  0  0  0
  1 26  1  0  0  0  0
  1 27  1  0  0  0  0
  1 28  1  0  0  0  0
  2  3  1  0  0  0  0
  2 24  1  0  0  0  0
  3  4  1  0  0  0  0
  3  5  2  0  0  0  0
  4 29  1  0  0  0  0
  4 46  1  0  0  0  0
  5  6  1  0  0  0  0
  5 30  1  0  0  0  0
  6  7  1  0  0  0  0
  6 20  1  0  0  0  0
  6 24  1  0  0  0  0
  7  8  2  0  0  0  0
  7 19  1  0  0  0  0
  8  9  1  0  0  0  0
  8 31  1  0  0  0  0
  9 10  2  0  0  0  0
  9 32  1  0  0  0  0
 10 11  1  0  0  0  0
 10 33  1  0  0  0  0
 11 12  1  0  0  0  0
 11 19  2  0  0  0  0
 12 13  2  0  0  0  0
 12 18  1  0  0  0  0
 13 14  1  0  0  0  0
 13 34  1  0  0  0  0
 14 15  2  0  0  0  0
 14 35  1  0  0  0  0
 15 16  1  0  0  0  0
 15 36  1  0  0  0  0
 16 17  1  0  0  0  0
 16 18  2  0  0  0  0
 18 37  1  0  0  0  0
 19 38  1  0  0  0  0
 20 21  1  0  0  0  0
 20 23  1  0  0  0  0
 20 39  1  0  0  0  0
 21 22  1  0  0  0  0
 21 40  1  0  0  0  0
 21 41  1  0  0  0  0
 22 23  1  0  0  0  0
 22 42  1  0  0  0  0
 22 43  1  0  0  0  0
 23 44  1  0  0  0  0
 23 45  1  0  0  0  0
 24 25  2  0  0  0  0
M  END
>  <r_user_dG.exp>
-9.963000

$$$$
CAT-4n
  PyMOL2.3          3D                             0

 46 49  0  0  1  0  0  0  0  0999 V2000
   30.5024   31.1685   28.5251 C   0  0  0  0  0  0  0  0  0  0  0  0
   31.6416   30.9829   27.6253 N   0  0  0  0  0  0  0  0  0  0  0  0
   32.9482   31.0798   27.9252 C   0  0  0  0  0  0  0  0  0  0  0  0
   33.4566   31.3670   29.1286 N   0  0  0  0  0  0  0  0  0  0  0  0
   33.7190   30.8404   26.8619 N   0  3  0  0  0  0  0  0  0  0  0  0
   32.9267   30.4354   25.7028 C   0  0  2  0  0  0  0  0  0  0  0  0
   33.2007   28.9267   25.4826 C   0  0  0  0  0  0  0  0  0  0  0  0
   34.3359   28.5378   24.7455 C   0  0  0  0  0  0  0  0  0  0  0  0
   34.6508   27.1865   24.5382 C   0  0  0  0  0  0  0  0  0  0  0  0
   33.8647   26.1847   25.1278 C   0  0  0  0  0  0  0  0  0  0  0  0
   32.7706   26.5403   25.9319 C   0  0  0  0  0  0  0  0  0  0  0  0
   32.4401   27.8957   26.1031 C   0  0  0  0  0  0  0  0  0  0  0  0
   33.1283   31.4055   24.5113 C   0  0  0  0  0  0  0  0  0  0  0  0
   33.2888   30.9573   23.1799 C   0  0  0  0  0  0  0  0  0  0  0  0
   33.4792   31.8789   22.1396 C   0  0  0  0  0  0  0  0  0  0  0  0
   33.3821   33.2592   22.3851 C   0  0  0  0  0  0  0  0  0  0  0  0
   33.1320   33.7546   23.6822 C   0  0  0  0  0  0  0  0  0  0  0  0
   32.8293   35.1884   23.9136 C   0  0  0  0  0  0  0  0  0  0  0  0
   32.1838   35.9680   22.9238 C   0  0  0  0  0  0  0  0  0  0  0  0
   31.7721   37.2396   23.1004 N   0  0  0  0  0  0  0  0  0  0  0  0
   31.9881   37.8173   24.2975 C   0  0  0  0  0  0  0  0  0  0  0  0
   32.6500   37.1634   25.3472 C   0  0  0  0  0  0  0  0  0  0  0  0
   32.8674   37.8474   26.6085 C   0  0  0  0  0  0  0  0  0  0  0  0
   33.0424   38.3940   27.6113 N   0  0  0  0  0  0  0  0  0  0  0  0
   33.0822   35.8387   25.1447 C   0  0  0  0  0  0  0  0  0  0  0  0
   33.0802   32.8097   24.7366 C   0  0  0  0  0  0  0  0  0  0  0  0
   31.5064   30.6555   26.2474 C   0  0  0  0  0  0  0  0  0  0  0  0
   30.4266   30.5309   25.6568 O   0  0  0  0  0  0  0  0  0  0  0  0
   30.0101   32.1136   28.2957 H   0  0  0  0  0  0  0  0  0  0  0  0
   29.7776   30.3644   28.3969 H   0  0  0  0  0  0  0  0  0  0  0  0
   30.8219   31.1649   29.5644 H   0  0  0  0  0  0  0  0  0  0  0  0
   34.4684   31.4370   29.2412 H   0  0  0  0  0  0  0  0  0  0  0  0
   34.7379   30.8653   26.8608 H   0  0  0  0  0  0  0  0  0  0  0  0
   34.9632   29.3001   24.3227 H   0  0  0  0  0  0  0  0  0  0  0  0
   35.5087   26.9335   23.9369 H   0  0  0  0  0  0  0  0  0  0  0  0
   34.1100   25.1445   24.9945 H   0  0  0  0  0  0  0  0  0  0  0  0
   32.1948   25.7683   26.4270 H   0  0  0  0  0  0  0  0  0  0  0  0
   31.6014   28.1015   26.7466 H   0  0  0  0  0  0  0  0  0  0  0  0
   33.2809   29.9097   22.9197 H   0  0  0  0  0  0  0  0  0  0  0  0
   33.6597   31.5210   21.1360 H   0  0  0  0  0  0  0  0  0  0  0  0
   33.4614   33.9320   21.5441 H   0  0  0  0  0  0  0  0  0  0  0  0
   31.9270   35.5393   21.9687 H   0  0  0  0  0  0  0  0  0  0  0  0
   31.6244   38.8293   24.4150 H   0  0  0  0  0  0  0  0  0  0  0  0
   33.5916   35.3180   25.9393 H   0  0  0  0  0  0  0  0  0  0  0  0
   32.9074   33.1679   25.7384 H   0  0  0  0  0  0  0  0  0  0  0  0
   32.8947   31.6594   29.9252 H   0  0  0  0  0  0  0  0  0  0  0  0
  1  2  1  0  0  0  0
  1 29  1  0  0  0  0
  1 30  1  0  0  0  0
  1 31  1  0  0  0  0
  2  3  1  0  0  0  0
  2 27  1  0  0  0  0
  3  4  1  0  0  0  0
  3  5  2  0  0  0  0
  4 32  1  0  0  0  0
  4 46  1  0  0  0  0
  5  6  1  0  0  0  0
  5 33  1  0  0  0  0
  6  7  1  0  0  0  0
  6 13  1  0  0  0  0
  6 27  1  0  0  0  0
  7  8  2  0  0  0  0
  7 12  1  0  0  0  0
  8  9  1  0  0  0  0
  8 34  1  0  0  0  0
  9 10  2  0  0  0  0
  9 35  1  0  0  0  0
 10 11  1  0  0  0  0
 10 36  1  0  0  0  0
 11 12  2  0  0  0  0
 11 37  1  0  0  0  0
 12 38  1  0  0  0  0
 13 14  2  0  0  0  0
 13 26  1  0  0  0  0
 14 15  1  0  0  0  0
 14 39  1  0  0  0  0
 15 16  2  0  0  0  0
 15 40  1  0  0  0  0
 16 17  1  0  0  0  0
 16 41  1  0  0  0  0
 17 18  1  0  0  0  0
 17 26  2  0  0  0  0
 18 19  2  0  0  0  0
 18 25  1  0  0  0  0
 19 20  1  0  0  0  0
 19 42  1  0  0  0  0
 20 21  2  0  0  0  0
 21 22  1  0  0  0  0
 21 43  1  0  0  0  0
 22 23  1  0  0  0  0
 22 25  2  0  0  0  0
 23 24  3  0  0  0  0
 25 44  1  0  0  0  0
 26 45  1  0  0  0  0
 27 28  2  0  0  0  0
M  END
>  <r_user_dG.exp>
-9.093000

$$$$
CAT-4o
  PyMOL2.3          3D                             0

 45 48  0  0  1  0  0  0  0  0999 V2000
   30.5317   30.9788   28.5102 C   0  0  0  0  0  0  0  0  0  0  0  0
   31.7074   30.7096   27.6720 N   0  0  0  0  0  0  0  0  0  0  0  0
   32.9905   30.9265   27.9950 C   0  0  0  0  0  0  0  0  0  0  0  0
   33.4473   31.3621   29.1722 N   0  0  0  0  0  0  0  0  0  0  0  0
   33.8079   30.6493   26.9811 N   0  3  0  0  0  0  0  0  0  0  0  0
   33.1023   30.1231   25.8105 C   0  0  2  0  0  0  0  0  0  0  0  0
   33.5503   28.6630   25.5706 C   0  0  0  0  0  0  0  0  0  0  0  0
   34.9104   28.3327   25.7501 C   0  0  0  0  0  0  0  0  0  0  0  0
   35.3872   27.0261   25.5578 C   0  0  0  0  0  0  0  0  0  0  0  0
   34.4944   26.0047   25.2121 C   0  0  0  0  0  0  0  0  0  0  0  0
   33.1358   26.3040   25.0172 C   0  0  0  0  0  0  0  0  0  0  0  0
   32.6700   27.6242   25.1810 C   0  0  0  0  0  0  0  0  0  0  0  0
   33.2867   31.0607   24.6038 C   0  0  0  0  0  0  0  0  0  0  0  0
   33.5947   30.5676   23.3144 C   0  0  0  0  0  0  0  0  0  0  0  0
   33.7202   31.4576   22.2338 C   0  0  0  0  0  0  0  0  0  0  0  0
   33.5256   32.8362   22.4211 C   0  0  0  0  0  0  0  0  0  0  0  0
   33.2369   33.3681   23.6949 C   0  0  0  0  0  0  0  0  0  0  0  0
   33.0065   34.8190   23.8912 C   0  0  0  0  0  0  0  0  0  0  0  0
   32.5094   35.6490   22.8605 C   0  0  0  0  0  0  0  0  0  0  0  0
   32.2192   36.9578   23.0124 N   0  0  0  0  0  0  0  0  0  0  0  0
   32.4246   37.5180   24.2196 C   0  0  0  0  0  0  0  0  0  0  0  0
   32.9537   36.8102   25.3095 C   0  0  0  0  0  0  0  0  0  0  0  0
   33.1655   37.4164   26.5024 F   0  0  0  0  0  0  0  0  0  0  0  0
   33.2500   35.4495   25.1307 C   0  0  0  0  0  0  0  0  0  0  0  0
   33.1352   32.4607   24.7747 C   0  0  0  0  0  0  0  0  0  0  0  0
   31.6498   30.2267   26.3306 C   0  0  0  0  0  0  0  0  0  0  0  0
   30.5974   29.9852   25.7275 O   0  0  0  0  0  0  0  0  0  0  0  0
   30.7693   30.8632   29.5672 H   0  0  0  0  0  0  0  0  0  0  0  0
   30.1899   31.9990   28.3390 H   0  0  0  0  0  0  0  0  0  0  0  0
   29.7111   30.3015   28.2723 H   0  0  0  0  0  0  0  0  0  0  0  0
   34.4516   31.4955   29.3004 H   0  0  0  0  0  0  0  0  0  0  0  0
   34.8187   30.7841   26.9989 H   0  0  0  0  0  0  0  0  0  0  0  0
   35.6086   29.0877   26.0628 H   0  0  0  0  0  0  0  0  0  0  0  0
   36.4366   26.8106   25.7043 H   0  0  0  0  0  0  0  0  0  0  0  0
   34.8611   24.9983   25.1145 H   0  0  0  0  0  0  0  0  0  0  0  0
   32.4492   25.5165   24.7435 H   0  0  0  0  0  0  0  0  0  0  0  0
   31.6238   27.8130   25.0160 H   0  0  0  0  0  0  0  0  0  0  0  0
   33.7354   29.5113   23.1277 H   0  0  0  0  0  0  0  0  0  0  0  0
   33.9549   31.0893   21.2456 H   0  0  0  0  0  0  0  0  0  0  0  0
   33.5995   33.4816   21.5605 H   0  0  0  0  0  0  0  0  0  0  0  0
   32.2963   35.2465   21.8820 H   0  0  0  0  0  0  0  0  0  0  0  0
   32.1574   38.5593   24.3213 H   0  0  0  0  0  0  0  0  0  0  0  0
   33.6709   34.8965   25.9514 H   0  0  0  0  0  0  0  0  0  0  0  0
   32.8934   32.8439   25.7549 H   0  0  0  0  0  0  0  0  0  0  0  0
   32.8569   31.6479   29.9516 H   0  0  0  0  0  0  0  0  0  0  0  0
  1  2  1  0  0  0  0
  1 28  1  0  0  0  0
  1 29  1  0  0  0  0
  1 30  1  0  0  0  0
  2  3  1  0  0  0  0
  2 26  1  0  0  0  0
  3  4  1  0  0  0  0
  3  5  2  0  0  0  0
  4 31  1  0  0  0  0
  4 45  1  0  0  0  0
  5  6  1  0  0  0  0
  5 32  1  0  0  0  0
  6  7  1  0  0  0  0
  6 13  1  0  0  0  0
  6 26  1  0  0  0  0
  7  8  2  0  0  0  0
  7 12  1  0  0  0  0
  8  9  1  0  0  0  0
  8 33  1  0  0  0  0
  9 10  2  0  0  0  0
  9 34  1  0  0  0  0
 10 11  1  0  0  0  0
 10 35  1  0  0  0  0
 11 12  2  0  0  0  0
 11 36  1  0  0  0  0
 12 37  1  0  0  0  0
 13 14  2  0  0  0  0
 13 25  1  0  0  0  0
 14 15  1  0  0  0  0
 14 38  1  0  0  0  0
 15 16  2  0  0  0  0
 15 39  1  0  0  0  0
 16 17  1  0  0  0  0
 16 40  1  0  0  0  0
 17 18  1  0  0  0  0
 17 25  2  0  0  0  0
 18 19  2  0  0  0  0
 18 24  1  0  0  0  0
 19 20  1  0  0  0  0
 19 41  1  0  0  0  0
 20 21  2  0  0  0  0
 21 22  1  0  0  0  0
 21 42  1  0  0  0  0
 22 23  1  0  0  0  0
 22 24  2  0  0  0  0
 24 43  1  0  0  0  0
 25 44  1  0  0  0  0
 26 27  2  0  0  0  0
M  END
>  <r_user_dG.exp>
-9.383000

$$$$
CAT-4a
  PyMOL2.3          3D                             0

 46 49  0  0  1  0  0  0  0  0999 V2000
   30.5247   31.0280   28.4750 C   0  0  0  0  0  0  0  0  0  0  0  0
   31.7049   30.7691   27.6406 N   0  0  0  0  0  0  0  0  0  0  0  0
   32.9872   30.9722   27.9751 C   0  0  0  0  0  0  0  0  0  0  0  0
   33.4412   31.3801   29.1635 N   0  0  0  0  0  0  0  0  0  0  0  0
   33.8083   30.7089   26.9608 N   0  3  0  0  0  0  0  0  0  0  0  0
   33.1085   30.2010   25.7794 C   0  0  2  0  0  0  0  0  0  0  0  0
   33.5476   28.7373   25.5336 C   0  0  0  0  0  0  0  0  0  0  0  0
   34.8998   28.3867   25.7352 C   0  0  0  0  0  0  0  0  0  0  0  0
   35.3631   27.0738   25.5480 C   0  0  0  0  0  0  0  0  0  0  0  0
   34.4633   26.0639   25.1862 C   0  0  0  0  0  0  0  0  0  0  0  0
   33.1118   26.3820   24.9766 C   0  0  0  0  0  0  0  0  0  0  0  0
   32.6612   27.7083   25.1338 C   0  0  0  0  0  0  0  0  0  0  0  0
   33.3047   31.1548   24.5868 C   0  0  0  0  0  0  0  0  0  0  0  0
   33.6337   30.6864   23.2937 C   0  0  0  0  0  0  0  0  0  0  0  0
   33.7579   31.5965   22.2279 C   0  0  0  0  0  0  0  0  0  0  0  0
   33.5430   32.9718   22.4357 C   0  0  0  0  0  0  0  0  0  0  0  0
   33.2428   33.4800   23.7165 C   0  0  0  0  0  0  0  0  0  0  0  0
   32.9967   34.9254   23.9492 C   0  0  0  0  0  0  0  0  0  0  0  0
   32.4495   35.7600   22.9463 C   0  0  0  0  0  0  0  0  0  0  0  0
   32.1281   37.1072   23.2168 C   0  0  0  0  0  0  0  0  0  0  0  0
   32.3599   37.6508   24.4921 C   0  0  0  0  0  0  0  0  0  0  0  0
   32.9456   36.8532   25.4872 C   0  0  0  0  0  0  0  0  0  0  0  0
   33.2635   35.5112   25.2080 C   0  0  0  0  0  0  0  0  0  0  0  0
   33.1388   32.5509   24.7769 C   0  0  0  0  0  0  0  0  0  0  0  0
   31.6530   30.3075   26.2917 C   0  0  0  0  0  0  0  0  0  0  0  0
   30.6029   30.0761   25.6804 O   0  0  0  0  0  0  0  0  0  0  0  0
   30.1748   32.0452   28.3022 H   0  0  0  0  0  0  0  0  0  0  0  0
   29.7108   30.3436   28.2338 H   0  0  0  0  0  0  0  0  0  0  0  0
   30.7594   30.9143   29.5329 H   0  0  0  0  0  0  0  0  0  0  0  0
   34.4456   31.5053   29.2977 H   0  0  0  0  0  0  0  0  0  0  0  0
   34.8201   30.8347   26.9869 H   0  0  0  0  0  0  0  0  0  0  0  0
   35.6021   29.1303   26.0638 H   0  0  0  0  0  0  0  0  0  0  0  0
   36.4072   26.8450   25.7102 H   0  0  0  0  0  0  0  0  0  0  0  0
   34.8147   25.0514   25.0881 H   0  0  0  0  0  0  0  0  0  0  0  0
   32.4193   25.6023   24.6979 H   0  0  0  0  0  0  0  0  0  0  0  0
   31.6193   27.9098   24.9609 H   0  0  0  0  0  0  0  0  0  0  0  0
   33.7877   29.6345   23.0940 H   0  0  0  0  0  0  0  0  0  0  0  0
   34.0056   31.2429   21.2366 H   0  0  0  0  0  0  0  0  0  0  0  0
   33.6095   33.6403   21.5921 H   0  0  0  0  0  0  0  0  0  0  0  0
   32.2265   35.3577   21.9692 H   0  0  0  0  0  0  0  0  0  0  0  0
   31.6730   37.7251   22.4583 H   0  0  0  0  0  0  0  0  0  0  0  0
   32.0877   38.6748   24.7068 H   0  0  0  0  0  0  0  0  0  0  0  0
   33.1380   37.2641   26.4677 H   0  0  0  0  0  0  0  0  0  0  0  0
   33.7182   34.9225   25.9848 H   0  0  0  0  0  0  0  0  0  0  0  0
   32.8796   32.9204   25.7572 H   0  0  0  0  0  0  0  0  0  0  0  0
   32.8487   31.6600   29.9433 H   0  0  0  0  0  0  0  0  0  0  0  0
  1  2  1  0  0  0  0
  1 27  1  0  0  0  0
  1 28  1  0  0  0  0
  1 29  1  0  0  0  0
  2  3  1  0  0  0  0
  2 25  1  0  0  0  0
  3  4  1  0  0  0  0
  3  5  2  0  0  0  0
  4 30  1  0  0  0  0
  4 46  1  0  0  0  0
  5  6  1  0  0  0  0
  5 31  1  0  0  0  0
  6  7  1  0  0  0  0
  6 13  1  0  0  0  0
  6 25  1  0  0  0  0
  7  8  2  0  0  0  0
  7 12  1  0  0  0  0
  8  9  1  0  0  0  0
  8 32  1  0  0  0  0
  9 10  2  0  0  0  0
  9 33  1  0  0  0  0
 10 11  1  0  0  0  0
 10 34  1  0  0  0  0
 11 12  2  0  0  0  0
 11 35  1  0  0  0  0
 12 36  1  0  0  0  0
 13 14  2  0  0  0  0
 13 24  1  0  0  0  0
 14 15  1  0  0  0  0
 14 37  1  0  0  0  0
 15 16  2  0  0  0  0
 15 38  1  0  0  0  0
 16 17  1  0  0  0  0
 16 39  1  0  0  0  0
 17 18  1  0  0  0  0
 17 24  2  0  0  0  0
 18 19  2  0  0  0  0
 18 23  1  0  0  0  0
 19 20  1  0  0  0  0
 19 40  1  0  0  0  0
 20 21  2  0  0  0  0
 20 41  1  0  0  0  0
 21 22  1  0  0  0  0
 21 42  1  0  0  0  0
 22 23  2  0  0  0  0
 22 43  1  0  0  0  0
 23 44  1  0  0  0  0
 24 45  1  0  0  0  0
 25 26  2  0  0  0  0
M  END
>  <r_user_dG.exp>
-7.933000

$$$$
CAT-13j
  PyMOL2.3          3D                             0

 45 48  0  0  1  0  0  0  0  0999 V2000
   30.5078   31.0446   28.4941 C   0  0  0  0  0  0  0  0  0  0  0  0
   31.6714   30.8684   27.6186 N   0  0  0  0  0  0  0  0  0  0  0  0
   32.9626   31.0467   27.9390 C   0  0  0  0  0  0  0  0  0  0  0  0
   33.4348   31.3675   29.1483 N   0  0  0  0  0  0  0  0  0  0  0  0
   33.7694   30.8611   26.8927 N   0  3  0  0  0  0  0  0  0  0  0  0
   33.0328   30.3830   25.7269 C   0  0  1  0  0  0  0  0  0  0  0  0
   33.1782   31.3486   24.5209 C   0  0  0  0  0  0  0  0  0  0  0  0
   33.2479   30.8985   23.1793 C   0  0  0  0  0  0  0  0  0  0  0  0
   33.3917   31.8215   22.1322 C   0  0  0  0  0  0  0  0  0  0  0  0
   33.3338   33.2036   22.3856 C   0  0  0  0  0  0  0  0  0  0  0  0
   33.1485   33.6968   23.6950 C   0  0  0  0  0  0  0  0  0  0  0  0
   32.8640   35.1376   23.9441 C   0  0  0  0  0  0  0  0  0  0  0  0
   32.1791   35.9082   22.9714 C   0  0  0  0  0  0  0  0  0  0  0  0
   31.7745   37.2335   23.2308 C   0  0  0  0  0  0  0  0  0  0  0  0
   32.0561   37.8256   24.4725 C   0  0  0  0  0  0  0  0  0  0  0  0
   32.7682   37.0969   25.4396 C   0  0  0  0  0  0  0  0  0  0  0  0
   33.1263   37.8359   26.9574 Cl  0  0  0  0  0  0  0  0  0  0  0  0
   33.1692   35.7708   25.1744 C   0  0  0  0  0  0  0  0  0  0  0  0
   33.1420   32.7539   24.7507 C   0  0  0  0  0  0  0  0  0  0  0  0
   33.4285   28.8919   25.5717 C   0  0  0  0  0  0  0  0  0  0  0  0
   34.4320   28.4793   24.6755 C   0  0  0  0  0  0  0  0  0  0  0  0
   34.8149   27.1345   24.6172 C   0  0  0  0  0  0  0  0  0  0  0  0
   34.2008   26.2233   25.4852 C   0  0  0  0  0  0  0  0  0  0  0  0
   33.2533   26.7111   26.3953 C   0  0  0  0  0  0  0  0  0  0  0  0
   32.8895   28.0074   26.4511 N   0  0  0  0  0  0  0  0  0  0  0  0
   31.5866   30.5061   26.2436 C   0  0  0  0  0  0  0  0  0  0  0  0
   30.5258   30.3509   25.6214 O   0  0  0  0  0  0  0  0  0  0  0  0
   30.7798   30.9011   29.5385 H   0  0  0  0  0  0  0  0  0  0  0  0
   30.1101   32.0490   28.3629 H   0  0  0  0  0  0  0  0  0  0  0  0
   29.7217   30.3316   28.2466 H   0  0  0  0  0  0  0  0  0  0  0  0
   34.4405   31.4761   29.2805 H   0  0  0  0  0  0  0  0  0  0  0  0
   34.7882   30.8973   26.9205 H   0  0  0  0  0  0  0  0  0  0  0  0
   33.2074   29.8481   22.9142 H   0  0  0  0  0  0  0  0  0  0  0  0
   33.5104   31.4588   21.1231 H   0  0  0  0  0  0  0  0  0  0  0  0
   33.3917   33.8786   21.5445 H   0  0  0  0  0  0  0  0  0  0  0  0
   31.8983   35.4642   22.0273 H   0  0  0  0  0  0  0  0  0  0  0  0
   31.2184   37.7910   22.4914 H   0  0  0  0  0  0  0  0  0  0  0  0
   31.7283   38.8339   24.6860 H   0  0  0  0  0  0  0  0  0  0  0  0
   33.6991   35.2332   25.9428 H   0  0  0  0  0  0  0  0  0  0  0  0
   33.0141   33.1175   25.7584 H   0  0  0  0  0  0  0  0  0  0  0  0
   34.9080   29.1935   24.0301 H   0  0  0  0  0  0  0  0  0  0  0  0
   35.5801   26.8241   23.9275 H   0  0  0  0  0  0  0  0  0  0  0  0
   34.4672   25.1770   25.4813 H   0  0  0  0  0  0  0  0  0  0  0  0
   32.7925   26.0503   27.1150 H   0  0  0  0  0  0  0  0  0  0  0  0
   32.8458   31.6284   29.9373 H   0  0  0  0  0  0  0  0  0  0  0  0
  1  2  1  0  0  0  0
  1 28  1  0  0  0  0
  1 29  1  0  0  0  0
  1 30  1  0  0  0  0
  2  3  1  0  0  0  0
  2 26  1  0  0  0  0
  3  4  1  0  0  0  0
  3  5  2  0  0  0  0
  4 31  1  0  0  0  0
  4 45  1  0  0  0  0
  5  6  1  0  0  0  0
  5 32  1  0  0  0  0
  6  7  1  0  0  0  0
  6 20  1  0  0  0  0
  6 26  1  0  0  0  0
  7  8  2  0  0  0  0
  7 19  1  0  0  0  0
  8  9  1  0  0  0  0
  8 33  1  0  0  0  0
  9 10  2  0  0  0  0
  9 34  1  0  0  0  0
 10 11  1  0  0  0  0
 10 35  1  0  0  0  0
 11 12  1  0  0  0  0
 11 19  2  0  0  0  0
 12 13  2  0  0  0  0
 12 18  1  0  0  0  0
 13 14  1  0  0  0  0
 13 36  1  0  0  0  0
 14 15  2  0  0  0  0
 14 37  1  0  0  0  0
 15 16  1  0  0  0  0
 15 38  1  0  0  0  0
 16 17  1  0  0  0  0
 16 18  2  0  0  0  0
 18 39  1  0  0  0  0
 19 40  1  0  0  0  0
 20 21  2  0  0  0  0
 20 25  1  0  0  0  0
 21 22  1  0  0  0  0
 21 41  1  0  0  0  0
 22 23  2  0  0  0  0
 22 42  1  0  0  0  0
 23 24  1  0  0  0  0
 23 43  1  0  0  0  0
 24 25  2  0  0  0  0
 24 44  1  0  0  0  0
 26 27  2  0  0  0  0
M  END
>  <r_user_dG.exp>
-8.733000

$$$$
CAT-13h
  PyMOL2.3          3D                             0

 46 49  0  0  1  0  0  0  0  0999 V2000
   30.5118   31.3038   28.3275 C   0  0  0  0  0  0  0  0  0  0  0  0
   31.6976   30.9629   27.5359 N   0  0  0  0  0  0  0  0  0  0  0  0
   32.9847   31.0654   27.9107 C   0  0  0  0  0  0  0  0  0  0  0  0
   33.4343   31.4497   29.1090 N   0  0  0  0  0  0  0  0  0  0  0  0
   33.8183   30.7074   26.9333 N   0  3  0  0  0  0  0  0  0  0  0  0
   33.1025   30.2154   25.7601 C   0  0  1  0  0  0  0  0  0  0  0  0
   33.3875   31.1869   24.5648 C   0  0  0  0  0  0  0  0  0  0  0  0
   33.7971   30.7953   23.2636 C   0  0  0  0  0  0  0  0  0  0  0  0
   33.9232   31.7355   22.2283 C   0  0  0  0  0  0  0  0  0  0  0  0
   33.6317   33.0876   22.4576 C   0  0  0  0  0  0  0  0  0  0  0  0
   33.2757   33.5472   23.7384 C   0  0  0  0  0  0  0  0  0  0  0  0
   32.9471   34.9788   23.9611 C   0  0  0  0  0  0  0  0  0  0  0  0
   32.3261   35.7464   22.9458 C   0  0  0  0  0  0  0  0  0  0  0  0
   31.9322   37.0808   23.1738 C   0  0  0  0  0  0  0  0  0  0  0  0
   32.1730   37.6844   24.4180 C   0  0  0  0  0  0  0  0  0  0  0  0
   32.8269   36.9587   25.4251 C   0  0  0  0  0  0  0  0  0  0  0  0
   33.1480   37.7241   26.9371 Cl  0  0  0  0  0  0  0  0  0  0  0  0
   33.2070   35.6197   25.1956 C   0  0  0  0  0  0  0  0  0  0  0  0
   33.1879   32.5863   24.7747 C   0  0  0  0  0  0  0  0  0  0  0  0
   33.3560   28.6588   25.6908 C   0  0  0  0  0  0  0  0  0  0  0  0
   32.9892   27.9340   26.9983 C   0  0  0  0  0  0  0  0  0  0  0  0
   33.0833   27.8348   24.4514 C   0  0  0  0  0  0  0  0  0  0  0  0
   34.4994   28.0514   24.9108 C   0  0  0  0  0  0  0  0  0  0  0  0
   31.6470   30.4625   26.2021 C   0  0  0  0  0  0  0  0  0  0  0  0
   30.6068   30.2521   25.5685 O   0  0  0  0  0  0  0  0  0  0  0  0
   30.7055   31.1763   29.3919 H   0  0  0  0  0  0  0  0  0  0  0  0
   30.2381   32.3410   28.1370 H   0  0  0  0  0  0  0  0  0  0  0  0
   29.6614   30.6751   28.0625 H   0  0  0  0  0  0  0  0  0  0  0  0
   32.8425   31.7586   29.8781 H   0  0  0  0  0  0  0  0  0  0  0  0
   34.8357   30.7735   26.9774 H   0  0  0  0  0  0  0  0  0  0  0  0
   34.0203   29.7873   22.9740 H   0  0  0  0  0  0  0  0  0  0  0  0
   34.2202   31.4156   21.2383 H   0  0  0  0  0  0  0  0  0  0  0  0
   33.6820   33.7763   21.6300 H   0  0  0  0  0  0  0  0  0  0  0  0
   32.1001   35.2987   21.9886 H   0  0  0  0  0  0  0  0  0  0  0  0
   31.4173   37.6412   22.4084 H   0  0  0  0  0  0  0  0  0  0  0  0
   31.8551   38.7008   24.6029 H   0  0  0  0  0  0  0  0  0  0  0  0
   33.7072   35.0807   25.9815 H   0  0  0  0  0  0  0  0  0  0  0  0
   32.8917   32.9427   25.7499 H   0  0  0  0  0  0  0  0  0  0  0  0
   33.4738   28.3735   27.8699 H   0  0  0  0  0  0  0  0  0  0  0  0
   31.9111   27.9210   27.1605 H   0  0  0  0  0  0  0  0  0  0  0  0
   33.3074   26.8912   26.9580 H   0  0  0  0  0  0  0  0  0  0  0  0
   32.6684   26.8364   24.5794 H   0  0  0  0  0  0  0  0  0  0  0  0
   32.7284   28.3502   23.5728 H   0  0  0  0  0  0  0  0  0  0  0  0
   35.1235   28.7169   24.3440 H   0  0  0  0  0  0  0  0  0  0  0  0
   35.0251   27.2047   25.3481 H   0  0  0  0  0  0  0  0  0  0  0  0
   34.4411   31.5215   29.2631 H   0  0  0  0  0  0  0  0  0  0  0  0
  1  2  1  0  0  0  0
  1 26  1  0  0  0  0
  1 27  1  0  0  0  0
  1 28  1  0  0  0  0
  2  3  1  0  0  0  0
  2 24  1  0  0  0  0
  3  4  1  0  0  0  0
  3  5  2  0  0  0  0
  4 29  1  0  0  0  0
  4 46  1  0  0  0  0
  5  6  1  0  0  0  0
  5 30  1  0  0  0  0
  6  7  1  0  0  0  0
  6 20  1  0  0  0  0
  6 24  1  0  0  0  0
  7  8  2  0  0  0  0
  7 19  1  0  0  0  0
  8  9  1  0  0  0  0
  8 31  1  0  0  0  0
  9 10  2  0  0  0  0
  9 32  1  0  0  0  0
 10 11  1  0  0  0  0
 10 33  1  0  0  0  0
 11 12  1  0  0  0  0
 11 19  2  0  0  0  0
 12 13  2  0  0  0  0
 12 18  1  0  0  0  0
 13 14  1  0  0  0  0
 13 34  1  0  0  0  0
 14 15  2  0  0  0  0
 14 35  1  0  0  0  0
 15 16  1  0  0  0  0
 15 36  1  0  0  0  0
 16 17  1  0  0  0  0
 16 18  2  0  0  0  0
 18 37  1  0  0  0  0
 19 38  1  0  0  0  0
 20 21  1  0  0  0  0
 20 22  1  0  0  0  0
 20 23  1  0  0  0  0
 21 39  1  0  0  0  0
 21 40  1  0  0  0  0
 21 41  1  0  0  0  0
 22 23  1  0  0  0  0
 22 42  1  0  0  0  0
 22 43  1  0  0  0  0
 23 44  1  0  0  0  0
 23 45  1  0  0  0  0
 24 25  2  0  0  0  0
M  END
>  <r_user_dG.exp>
-9.633000

$$$$
CAT-4i
  PyMOL2.3          3D                             0

 45 48  0  0  1  0  0  0  0  0999 V2000
   30.5167   31.0669   28.5994 C   0  0  0  0  0  0  0  0  0  0  0  0
   31.6445   30.9206   27.6723 N   0  0  0  0  0  0  0  0  0  0  0  0
   32.9539   31.0276   27.9527 C   0  0  0  0  0  0  0  0  0  0  0  0
   33.4763   31.3100   29.1513 N   0  0  0  0  0  0  0  0  0  0  0  0
   33.7118   30.8057   26.8730 N   0  3  0  0  0  0  0  0  0  0  0  0
   32.9045   30.4205   25.7134 C   0  0  2  0  0  0  0  0  0  0  0  0
   33.1892   28.9288   25.4311 C   0  0  0  0  0  0  0  0  0  0  0  0
   32.4221   27.8620   25.9775 C   0  0  0  0  0  0  0  0  0  0  0  0
   32.7458   26.5198   25.6992 C   0  0  0  0  0  0  0  0  0  0  0  0
   33.8359   26.2211   24.8666 C   0  0  0  0  0  0  0  0  0  0  0  0
   34.6358   27.2600   24.3627 C   0  0  0  0  0  0  0  0  0  0  0  0
   34.3275   28.5926   24.6724 C   0  0  0  0  0  0  0  0  0  0  0  0
   33.0796   31.4048   24.5322 C   0  0  0  0  0  0  0  0  0  0  0  0
   33.1596   30.9757   23.1846 C   0  0  0  0  0  0  0  0  0  0  0  0
   33.3291   31.9112   22.1530 C   0  0  0  0  0  0  0  0  0  0  0  0
   33.3162   33.2906   22.4286 C   0  0  0  0  0  0  0  0  0  0  0  0
   33.1624   33.7661   23.7489 C   0  0  0  0  0  0  0  0  0  0  0  0
   32.9882   35.2150   24.0370 C   0  0  0  0  0  0  0  0  0  0  0  0
   33.2944   35.7820   25.2886 C   0  0  0  0  0  0  0  0  0  0  0  0
   32.9419   37.1125   25.5557 C   0  0  0  0  0  0  0  0  0  0  0  0
   32.2917   37.8450   24.5541 C   0  0  0  0  0  0  0  0  0  0  0  0
   32.0660   37.2240   23.3171 C   0  0  0  0  0  0  0  0  0  0  0  0
   32.4065   35.9454   23.0606 N   0  0  0  0  0  0  0  0  0  0  0  0
   33.1046   32.8010   24.7857 C   0  0  0  0  0  0  0  0  0  0  0  0
   31.4918   30.6158   26.2902 C   0  0  0  0  0  0  0  0  0  0  0  0
   30.4024   30.4847   25.7163 O   0  0  0  0  0  0  0  0  0  0  0  0
   30.8576   31.0771   29.6341 H   0  0  0  0  0  0  0  0  0  0  0  0
   29.9814   31.9919   28.3853 H   0  0  0  0  0  0  0  0  0  0  0  0
   29.8205   30.2350   28.4913 H   0  0  0  0  0  0  0  0  0  0  0  0
   34.4897   31.3908   29.2457 H   0  0  0  0  0  0  0  0  0  0  0  0
   34.7305   30.8417   26.8571 H   0  0  0  0  0  0  0  0  0  0  0  0
   31.5776   28.0277   26.6279 H   0  0  0  0  0  0  0  0  0  0  0  0
   32.1515   25.7163   26.1169 H   0  0  0  0  0  0  0  0  0  0  0  0
   34.0625   25.1961   24.6268 H   0  0  0  0  0  0  0  0  0  0  0  0
   35.4844   27.0503   23.7337 H   0  0  0  0  0  0  0  0  0  0  0  0
   34.9497   29.3837   24.2891 H   0  0  0  0  0  0  0  0  0  0  0  0
   33.1113   29.9324   22.9034 H   0  0  0  0  0  0  0  0  0  0  0  0
   33.4402   31.5612   21.1403 H   0  0  0  0  0  0  0  0  0  0  0  0
   33.3875   33.9922   21.6076 H   0  0  0  0  0  0  0  0  0  0  0  0
   33.7667   35.1916   26.0520 H   0  0  0  0  0  0  0  0  0  0  0  0
   33.1515   37.5583   26.5162 H   0  0  0  0  0  0  0  0  0  0  0  0
   31.9804   38.8659   24.7278 H   0  0  0  0  0  0  0  0  0  0  0  0
   31.5807   37.7726   22.5216 H   0  0  0  0  0  0  0  0  0  0  0  0
   32.9955   33.1489   25.7999 H   0  0  0  0  0  0  0  0  0  0  0  0
   32.9217   31.6089   29.9529 H   0  0  0  0  0  0  0  0  0  0  0  0
  1  2  1  0  0  0  0
  1 27  1  0  0  0  0
  1 28  1  0  0  0  0
  1 29  1  0  0  0  0
  2  3  1  0  0  0  0
  2 25  1  0  0  0  0
  3  4  1  0  0  0  0
  3  5  2  0  0  0  0
  4 30  1  0  0  0  0
  4 45  1  0  0  0  0
  5  6  1  0  0  0  0
  5 31  1  0  0  0  0
  6  7  1  0  0  0  0
  6 13  1  0  0  0  0
  6 25  1  0  0  0  0
  7  8  2  0  0  0  0
  7 12  1  0  0  0  0
  8  9  1  0  0  0  0
  8 32  1  0  0  0  0
  9 10  2  0  0  0  0
  9 33  1  0  0  0  0
 10 11  1  0  0  0  0
 10 34  1  0  0  0  0
 11 12  2  0  0  0  0
 11 35  1  0  0  0  0
 12 36  1  0  0  0  0
 13 14  2  0  0  0  0
 13 24  1  0  0  0  0
 14 15  1  0  0  0  0
 14 37  1  0  0  0  0
 15 16  2  0  0  0  0
 15 38  1  0  0  0  0
 16 17  1  0  0  0  0
 16 39  1  0  0  0  0
 17 18  1  0  0  0  0
 17 24  2  0  0  0  0
 18 19  2  0  0  0  0
 18 23  1  0  0  0  0
 19 20  1  0  0  0  0
 19 40  1  0  0  0  0
 20 21  2  0  0  0  0
 20 41  1  0  0  0  0
 21 22  1  0  0  0  0
 21 42  1  0  0  0  0
 22 23  2  0  0  0  0
 22 43  1  0  0  0  0
 24 44  1  0  0  0  0
 25 26  2  0  0  0  0
M  END
>  <r_user_dG.exp>
-8.263000

$$$$
CAT-17e
  PyMOL2.3          3D                             0

 46 49  0  0  1  0  0  0  0  0999 V2000
   32.6543   38.3747   27.0459 C   0  0  0  0  0  0  0  0  0  0  0  0
   33.3403   37.2005   26.6475 O   0  0  0  0  0  0  0  0  0  0  0  0
   33.0558   36.7011   25.3959 C   0  0  0  0  0  0  0  0  0  0  0  0
   32.5040   37.4435   24.3282 C   0  0  0  0  0  0  0  0  0  0  0  0
   32.2729   36.9190   23.1113 N   0  0  0  0  0  0  0  0  0  0  0  0
   32.5550   35.6155   22.9167 C   0  0  0  0  0  0  0  0  0  0  0  0
   33.0756   34.7544   23.9087 C   0  0  0  0  0  0  0  0  0  0  0  0
   33.3004   33.3090   23.6707 C   0  0  0  0  0  0  0  0  0  0  0  0
   33.5128   32.8249   22.3694 C   0  0  0  0  0  0  0  0  0  0  0  0
   33.6526   31.4525   22.1240 C   0  0  0  0  0  0  0  0  0  0  0  0
   33.5650   30.5242   23.1746 C   0  0  0  0  0  0  0  0  0  0  0  0
   33.3824   30.9605   24.5091 C   0  0  0  0  0  0  0  0  0  0  0  0
   33.2210   30.0156   25.7360 C   0  0  1  0  0  0  0  0  0  0  0  0
   33.6399   28.5256   25.6895 C   0  0  0  0  0  0  0  0  0  0  0  0
   33.1566   27.5293   24.6651 C   0  0  0  0  0  0  0  0  0  0  0  0
   34.6254   27.8623   24.7517 C   0  0  0  0  0  0  0  0  0  0  0  0
   33.8942   30.5753   26.9063 N   0  3  0  0  0  0  0  0  0  0  0  0
   33.0495   30.8635   27.8967 C   0  0  0  0  0  0  0  0  0  0  0  0
   33.4628   31.3256   29.0824 N   0  0  0  0  0  0  0  0  0  0  0  0
   31.7783   30.6142   27.5458 N   0  0  0  0  0  0  0  0  0  0  0  0
   30.5953   30.8167   28.3862 C   0  0  0  0  0  0  0  0  0  0  0  0
   31.7614   30.0930   26.2173 C   0  0  0  0  0  0  0  0  0  0  0  0
   30.7372   29.7687   25.6078 O   0  0  0  0  0  0  0  0  0  0  0  0
   33.2647   32.3630   24.7226 C   0  0  0  0  0  0  0  0  0  0  0  0
   33.3400   35.3481   25.1572 C   0  0  0  0  0  0  0  0  0  0  0  0
   32.8850   38.5918   28.0898 H   0  0  0  0  0  0  0  0  0  0  0  0
   32.9416   39.2384   26.4535 H   0  0  0  0  0  0  0  0  0  0  0  0
   31.5790   38.2347   26.9540 H   0  0  0  0  0  0  0  0  0  0  0  0
   32.2510   38.4871   24.4334 H   0  0  0  0  0  0  0  0  0  0  0  0
   32.3162   35.2471   21.9307 H   0  0  0  0  0  0  0  0  0  0  0  0
   33.5521   33.5011   21.5300 H   0  0  0  0  0  0  0  0  0  0  0  0
   33.8061   31.1205   21.1083 H   0  0  0  0  0  0  0  0  0  0  0  0
   33.6325   29.4920   22.8904 H   0  0  0  0  0  0  0  0  0  0  0  0
   33.6665   28.1033   26.6934 H   0  0  0  0  0  0  0  0  0  0  0  0
   32.8391   26.5497   25.0158 H   0  0  0  0  0  0  0  0  0  0  0  0
   32.5932   27.9131   23.8287 H   0  0  0  0  0  0  0  0  0  0  0  0
   35.0553   28.4139   23.9287 H   0  0  0  0  0  0  0  0  0  0  0  0
   35.2861   27.1135   25.1828 H   0  0  0  0  0  0  0  0  0  0  0  0
   34.9032   30.7315   26.9412 H   0  0  0  0  0  0  0  0  0  0  0  0
   32.8476   31.6146   29.8407 H   0  0  0  0  0  0  0  0  0  0  0  0
   29.6656   30.6864   27.8314 H   0  0  0  0  0  0  0  0  0  0  0  0
   30.5999   30.1231   29.2263 H   0  0  0  0  0  0  0  0  0  0  0  0
   30.6139   31.8285   28.7736 H   0  0  0  0  0  0  0  0  0  0  0  0
   33.0822   32.7240   25.7225 H   0  0  0  0  0  0  0  0  0  0  0  0
   33.7602   34.7631   25.9549 H   0  0  0  0  0  0  0  0  0  0  0  0
   34.4621   31.4775   29.2336 H   0  0  0  0  0  0  0  0  0  0  0  0
  1  2  1  0  0  0  0
  1 26  1  0  0  0  0
  1 27  1  0  0  0  0
  1 28  1  0  0  0  0
  2  3  1  0  0  0  0
  3  4  2  0  0  0  0
  3 25  1  0  0  0  0
  4  5  1  0  0  0  0
  4 29  1  0  0  0  0
  5  6  2  0  0  0  0
  6  7  1  0  0  0  0
  6 30  1  0  0  0  0
  7  8  1  0  0  0  0
  7 25  2  0  0  0  0
  8  9  2  0  0  0  0
  8 24  1  0  0  0  0
  9 10  1  0  0  0  0
  9 31  1  0  0  0  0
 10 11  2  0  0  0  0
 10 32  1  0  0  0  0
 11 12  1  0  0  0  0
 11 33  1  0  0  0  0
 12 13  1  0  0  0  0
 12 24  2  0  0  0  0
 13 14  1  0  0  0  0
 13 17  1  0  0  0  0
 13 22  1  0  0  0  0
 14 15  1  0  0  0  0
 14 16  1  0  0  0  0
 14 34  1  0  0  0  0
 15 16  1  0  0  0  0
 15 35  1  0  0  0  0
 15 36  1  0  0  0  0
 16 37  1  0  0  0  0
 16 38  1  0  0  0  0
 17 18  2  0  0  0  0
 17 39  1  0  0  0  0
 18 19  1  0  0  0  0
 18 20  1  0  0  0  0
 19 40  1  0  0  0  0
 19 46  1  0  0  0  0
 20 21  1  0  0  0  0
 20 22  1  0  0  0  0
 21 41  1  0  0  0  0
 21 42  1  0  0  0  0
 21 43  1  0  0  0  0
 22 23  2  0  0  0  0
 24 44  1  0  0  0  0
 25 45  1  0  0  0  0
M  END
>  <r_user_dG.exp>
-10.023000

$$$$
