26
  PyMOL2.3          3D                             0

 43 46  0  0  0  0  0  0  0  0999 V2000
   37.4974   21.7317   37.2212 O   0  0  0  0  0  0  0  0  0  0  0  0
   36.6249   22.2868   36.5144 C   0  0  0  0  0  0  0  0  0  0  0  0
   36.5787   23.5283   36.3918 O   0  5  0  0  0  0  0  0  0  0  0  0
   35.5976   21.4644   35.8175 C   0  0  0  0  0  0  0  0  0  0  0  0
   34.5612   19.5614   35.3056 C   0  0  0  0  0  0  0  0  0  0  0  0
   34.1702   18.2105   35.2306 C   0  0  0  0  0  0  0  0  0  0  0  0
   33.0564   17.8690   34.4344 C   0  0  0  0  0  0  0  0  0  0  0  0
   32.3745   18.8749   33.7183 C   0  0  0  0  0  0  0  0  0  0  0  0
   32.7877   20.2238   33.8078 C   0  0  0  0  0  0  0  0  0  0  0  0
   33.8926   20.5957   34.6160 C   0  0  0  0  0  0  0  0  0  0  0  0
   34.5642   21.8181   34.9657 C   0  0  0  0  0  0  0  0  0  0  0  0
   34.1997   23.1991   34.4891 C   0  0  0  0  0  0  0  0  0  0  0  0
   33.6065   24.0753   35.6146 C   0  0  0  0  0  0  0  0  0  0  0  0
   32.2224   24.6600   35.3019 C   0  0  0  0  0  0  0  0  0  0  0  0
   31.3038   23.7501   34.6994 O   0  0  0  0  0  0  0  0  0  0  0  0
   30.4835   23.0042   35.5138 C   0  0  0  0  0  0  0  0  0  0  0  0
   28.7672   21.3606   37.0693 C   0  0  0  0  0  0  0  0  0  0  0  0
   30.1343   21.4498   37.3789 C   0  0  0  0  0  0  0  0  0  0  0  0
   30.9849   22.2679   36.6151 C   0  0  0  0  0  0  0  0  0  0  0  0
   34.7066   17.4513   35.7830 H   0  0  0  0  0  0  0  0  0  0  0  0
   32.7323   16.8422   34.3613 H   0  0  0  0  0  0  0  0  0  0  0  0
   31.5217   18.6200   33.1076 H   0  0  0  0  0  0  0  0  0  0  0  0
   32.2404   20.9909   33.2743 H   0  0  0  0  0  0  0  0  0  0  0  0
   33.5099   23.1292   33.6492 H   0  0  0  0  0  0  0  0  0  0  0  0
   35.0877   23.6917   34.0803 H   0  0  0  0  0  0  0  0  0  0  0  0
   34.2839   24.9045   35.8129 H   0  0  0  0  0  0  0  0  0  0  0  0
   33.5836   23.5264   36.5512 H   0  0  0  0  0  0  0  0  0  0  0  0
   32.3629   25.4627   34.5877 H   0  0  0  0  0  0  0  0  0  0  0  0
   31.7849   25.1161   36.1863 H   0  0  0  0  0  0  0  0  0  0  0  0
   32.0314   22.2694   36.8543 H   0  0  0  0  0  0  0  0  0  0  0  0
   28.2497   22.0884   35.9753 C   0  0  0  0  0  0  0  0  0  0  0  0
   29.1080   22.9044   35.1892 C   0  0  0  0  0  0  0  0  0  0  0  0
   28.5686   23.6179   34.0942 C   0  0  0  0  0  0  0  0  0  0  0  0
   27.2023   23.5050   33.7681 C   0  0  0  0  0  0  0  0  0  0  0  0
   26.3577   22.6848   34.5418 C   0  0  0  0  0  0  0  0  0  0  0  0
   26.8809   21.9841   35.6478 C   0  0  0  0  0  0  0  0  0  0  0  0
   29.1921   24.2539   33.4864 H   0  0  0  0  0  0  0  0  0  0  0  0
   26.8098   24.0549   32.9241 H   0  0  0  0  0  0  0  0  0  0  0  0
   25.3110   22.5943   34.2902 H   0  0  0  0  0  0  0  0  0  0  0  0
   26.2310   21.3557   36.2397 H   0  0  0  0  0  0  0  0  0  0  0  0
   30.5405   20.8764   38.1983 H   0  0  0  0  0  0  0  0  0  0  0  0
   28.1268   20.7266   37.6600 H   0  0  0  0  0  0  0  0  0  0  0  0
   35.6041   20.0972   36.0306 O   0  0  0  0  0  0  0  0  0  0  0  0
  1  2  2  0  0  0  0
  2  3  1  0  0  0  0
  2  4  1  0  0  0  0
  4 11  2  0  0  0  0
  4 43  1  0  0  0  0
  5  6  1  0  0  0  0
  5 10  2  0  0  0  0
  5 43  1  0  0  0  0
  6  7  2  0  0  0  0
  6 20  1  0  0  0  0
  7  8  1  0  0  0  0
  7 21  1  0  0  0  0
  8  9  2  0  0  0  0
  8 22  1  0  0  0  0
  9 10  1  0  0  0  0
  9 23  1  0  0  0  0
 10 11  1  0  0  0  0
 11 12  1  0  0  0  0
 12 24  1  0  0  0  0
 12 25  1  0  0  0  0
 12 13  1  0  0  0  0
 13 14  1  0  0  0  0
 13 26  1  0  0  0  0
 13 27  1  0  0  0  0
 14 15  1  0  0  0  0
 14 28  1  0  0  0  0
 14 29  1  0  0  0  0
 15 16  1  0  0  0  0
 16 19  2  0  0  0  0
 16 32  1  0  0  0  0
 17 18  2  0  0  0  0
 17 31  1  0  0  0  0
 17 42  1  0  0  0  0
 18 19  1  0  0  0  0
 18 41  1  0  0  0  0
 19 30  1  0  0  0  0
 31 32  2  0  0  0  0
 31 36  1  0  0  0  0
 32 33  1  0  0  0  0
 33 34  2  0  0  0  0
 33 37  1  0  0  0  0
 34 35  1  0  0  0  0
 34 38  1  0  0  0  0
 35 36  2  0  0  0  0
 35 39  1  0  0  0  0
 36 40  1  0  0  0  0
M  END
>  <r_user_dG.exp>
-8.235840

$$$$
48
  PyMOL2.3          3D                             0

 42 45  0  0  0  0  0  0  0  0999 V2000
   37.4475   21.3453   37.0933 O   0  0  0  0  0  0  0  0  0  0  0  0
   36.5371   22.0885   36.6550 C   0  0  0  0  0  0  0  0  0  0  0  0
   36.5479   23.3357   36.8059 O   0  5  0  0  0  0  0  0  0  0  0  0
   35.4073   21.4592   35.9422 C   0  0  0  0  0  0  0  0  0  0  0  0
   34.3030   19.6105   35.1642 C   0  0  0  0  0  0  0  0  0  0  0  0
   33.8629   18.3152   34.8231 C   0  0  0  0  0  0  0  0  0  0  0  0
   32.6491   18.1628   34.1172 C   0  0  0  0  0  0  0  0  0  0  0  0
   31.9010   19.3016   33.7578 C   0  0  0  0  0  0  0  0  0  0  0  0
   32.3560   20.5908   34.0986 C   0  0  0  0  0  0  0  0  0  0  0  0
   33.5692   20.7785   34.8061 C   0  0  0  0  0  0  0  0  0  0  0  0
   34.2828   21.9311   35.2986 C   0  0  0  0  0  0  0  0  0  0  0  0
   33.8802   23.3623   35.1519 C   0  0  0  0  0  0  0  0  0  0  0  0
   33.1653   23.8953   36.4115 C   0  0  0  0  0  0  0  0  0  0  0  0
   31.7705   23.2822   36.6212 C   0  0  0  0  0  0  0  0  0  0  0  0
   30.9517   23.6962   35.5356 O   0  0  0  0  0  0  0  0  0  0  0  0
   29.6330   23.2942   35.4621 C   0  0  0  0  0  0  0  0  0  0  0  0
   26.8955   22.7174   35.0098 C   0  0  0  0  0  0  0  0  0  0  0  0
   27.5767   23.5923   34.1528 C   0  0  0  0  0  0  0  0  0  0  0  0
   28.9294   23.8738   34.3833 C   0  0  0  0  0  0  0  0  0  0  0  0
   34.4430   17.4512   35.1034 H   0  0  0  0  0  0  0  0  0  0  0  0
   32.2947   17.1712   33.8658 H   0  0  0  0  0  0  0  0  0  0  0  0
   30.9627   19.1745   33.2257 H   0  0  0  0  0  0  0  0  0  0  0  0
   31.7593   21.4502   33.8165 H   0  0  0  0  0  0  0  0  0  0  0  0
   33.2379   23.4903   34.2813 H   0  0  0  0  0  0  0  0  0  0  0  0
   34.7609   23.9632   34.9426 H   0  0  0  0  0  0  0  0  0  0  0  0
   33.0780   24.9767   36.3304 H   0  0  0  0  0  0  0  0  0  0  0  0
   33.7927   23.7098   37.2839 H   0  0  0  0  0  0  0  0  0  0  0  0
   31.3442   23.6283   37.5648 H   0  0  0  0  0  0  0  0  0  0  0  0
   31.8511   22.1978   36.6562 H   0  0  0  0  0  0  0  0  0  0  0  0
   29.4532   24.5573   33.7212 H   0  0  0  0  0  0  0  0  0  0  0  0
   27.0580   24.0508   33.3169 H   0  0  0  0  0  0  0  0  0  0  0  0
   25.8540   22.4923   34.8492 H   0  0  0  0  0  0  0  0  0  0  0  0
   35.4070   20.0767   35.8540 N   0  0  0  0  0  0  0  0  0  0  0  0
   36.1577   19.5488   36.2787 H   0  0  0  0  0  0  0  0  0  0  0  0
   28.2041   20.8864   37.8764 C   0  0  0  0  0  0  0  0  0  0  0  0
   27.1598   21.2195   37.0313 N   0  0  0  0  0  0  0  0  0  0  0  0
   27.5868   22.1164   36.0790 C   0  0  0  0  0  0  0  0  0  0  0  0
   28.9706   22.3743   36.3455 C   0  0  0  0  0  0  0  0  0  0  0  0
   29.3228   21.5805   37.5008 C   0  0  0  0  0  0  0  0  0  0  0  0
   26.2250   20.8298   37.1156 H   0  0  0  0  0  0  0  0  0  0  0  0
   30.2856   21.5216   37.9877 H   0  0  0  0  0  0  0  0  0  0  0  0
   28.0554   20.1835   38.6824 H   0  0  0  0  0  0  0  0  0  0  0  0
  1  2  2  0  0  0  0
  2  3  1  0  0  0  0
  2  4  1  0  0  0  0
  4 11  2  0  0  0  0
  4 33  1  0  0  0  0
  5  6  1  0  0  0  0
  5 10  2  0  0  0  0
  5 33  1  0  0  0  0
  6  7  2  0  0  0  0
  6 20  1  0  0  0  0
  7  8  1  0  0  0  0
  7 21  1  0  0  0  0
  8  9  2  0  0  0  0
  8 22  1  0  0  0  0
  9 10  1  0  0  0  0
  9 23  1  0  0  0  0
 10 11  1  0  0  0  0
 11 12  1  0  0  0  0
 12 24  1  0  0  0  0
 12 25  1  0  0  0  0
 12 13  1  0  0  0  0
 13 14  1  0  0  0  0
 13 26  1  0  0  0  0
 13 27  1  0  0  0  0
 14 15  1  0  0  0  0
 14 28  1  0  0  0  0
 14 29  1  0  0  0  0
 15 16  1  0  0  0  0
 16 19  2  0  0  0  0
 16 38  1  0  0  0  0
 17 18  2  0  0  0  0
 17 32  1  0  0  0  0
 17 37  1  0  0  0  0
 18 19  1  0  0  0  0
 18 31  1  0  0  0  0
 19 30  1  0  0  0  0
 33 34  1  0  0  0  0
 35 36  1  0  0  0  0
 35 39  2  0  0  0  0
 35 42  1  0  0  0  0
 36 37  1  0  0  0  0
 36 40  1  0  0  0  0
 37 38  2  0  0  0  0
 38 39  1  0  0  0  0
 39 41  1  0  0  0  0
M  END
>  <r_user_dG.exp>
-6.662619

$$$$
33
  PyMOL2.3          3D                             0

 38 40  0  0  0  0  0  0  0  0999 V2000
   37.3990   21.4397   37.1900 O   0  0  0  0  0  0  0  0  0  0  0  0
   36.5326   22.1630   36.6512 C   0  0  0  0  0  0  0  0  0  0  0  0
   36.5516   23.4166   36.7295 O   0  5  0  0  0  0  0  0  0  0  0  0
   35.4388   21.5135   35.8920 C   0  0  0  0  0  0  0  0  0  0  0  0
   34.3285   19.6487   35.1640 C   0  0  0  0  0  0  0  0  0  0  0  0
   33.8617   18.3506   34.8930 C   0  0  0  0  0  0  0  0  0  0  0  0
   32.7006   18.1902   34.1076 C   0  0  0  0  0  0  0  0  0  0  0  0
   32.0244   19.3231   33.6040 C   0  0  0  0  0  0  0  0  0  0  0  0
   32.5050   20.6170   33.8805 C   0  0  0  0  0  0  0  0  0  0  0  0
   33.6699   20.8138   34.6687 C   0  0  0  0  0  0  0  0  0  0  0  0
   34.3836   21.9743   35.1343 C   0  0  0  0  0  0  0  0  0  0  0  0
   34.0329   23.4089   34.8340 C   0  0  0  0  0  0  0  0  0  0  0  0
   33.1973   24.0722   35.9426 C   0  0  0  0  0  0  0  0  0  0  0  0
   31.8157   23.4343   36.1577 C   0  0  0  0  0  0  0  0  0  0  0  0
   31.0996   23.4482   34.9288 O   0  0  0  0  0  0  0  0  0  0  0  0
   29.7503   23.1642   34.9393 C   0  0  0  0  0  0  0  0  0  0  0  0
   29.0026   22.8894   36.1133 C   0  0  0  0  0  0  0  0  0  0  0  0
   27.6115   22.6730   36.0343 C   0  0  0  0  0  0  0  0  0  0  0  0
   26.9585   22.7144   34.7898 C   0  0  0  0  0  0  0  0  0  0  0  0
   27.6979   22.9428   33.6145 C   0  0  0  0  0  0  0  0  0  0  0  0
   29.0872   23.1572   33.6930 C   0  0  0  0  0  0  0  0  0  0  0  0
   34.3978   17.4995   35.2856 H   0  0  0  0  0  0  0  0  0  0  0  0
   32.3390   17.1962   33.8962 H   0  0  0  0  0  0  0  0  0  0  0  0
   31.1269   19.1970   33.0043 H   0  0  0  0  0  0  0  0  0  0  0  0
   31.9777   21.4834   33.5000 H   0  0  0  0  0  0  0  0  0  0  0  0
   33.5044   23.4738   33.8847 H   0  0  0  0  0  0  0  0  0  0  0  0
   34.9471   23.9881   34.6893 H   0  0  0  0  0  0  0  0  0  0  0  0
   33.0630   25.1273   35.6953 H   0  0  0  0  0  0  0  0  0  0  0  0
   33.7499   24.0562   36.8835 H   0  0  0  0  0  0  0  0  0  0  0  0
   31.2957   24.0057   36.9228 H   0  0  0  0  0  0  0  0  0  0  0  0
   31.9087   22.4162   36.5245 H   0  0  0  0  0  0  0  0  0  0  0  0
   29.4681   22.8453   37.0802 H   0  0  0  0  0  0  0  0  0  0  0  0
   29.6543   23.3277   32.7945 H   0  0  0  0  0  0  0  0  0  0  0  0
   35.4081   20.1277   35.8812 N   0  0  0  0  0  0  0  0  0  0  0  0
   36.1178   19.6010   36.3779 H   0  0  0  0  0  0  0  0  0  0  0  0
   27.2112   22.9672   32.6517 H   0  0  0  0  0  0  0  0  0  0  0  0
   25.2487   22.5060   34.7018 Cl  0  0  0  0  0  0  0  0  0  0  0  0
   27.0503   22.4899   36.9366 H   0  0  0  0  0  0  0  0  0  0  0  0
  1  2  2  0  0  0  0
  2  3  1  0  0  0  0
  2  4  1  0  0  0  0
  4 11  2  0  0  0  0
  4 34  1  0  0  0  0
  5  6  1  0  0  0  0
  5 10  2  0  0  0  0
  5 34  1  0  0  0  0
  6  7  2  0  0  0  0
  6 22  1  0  0  0  0
  7  8  1  0  0  0  0
  7 23  1  0  0  0  0
  8  9  2  0  0  0  0
  8 24  1  0  0  0  0
  9 10  1  0  0  0  0
  9 25  1  0  0  0  0
 10 11  1  0  0  0  0
 11 12  1  0  0  0  0
 12 26  1  0  0  0  0
 12 27  1  0  0  0  0
 12 13  1  0  0  0  0
 13 14  1  0  0  0  0
 13 28  1  0  0  0  0
 13 29  1  0  0  0  0
 14 15  1  0  0  0  0
 14 30  1  0  0  0  0
 14 31  1  0  0  0  0
 15 16  1  0  0  0  0
 16 17  1  0  0  0  0
 16 21  2  0  0  0  0
 17 18  2  0  0  0  0
 17 32  1  0  0  0  0
 18 19  1  0  0  0  0
 18 38  1  0  0  0  0
 19 20  2  0  0  0  0
 19 37  1  0  0  0  0
 20 21  1  0  0  0  0
 20 36  1  0  0  0  0
 21 33  1  0  0  0  0
 34 35  1  0  0  0  0
M  END
>  <r_user_dG.exp>
-6.875244

$$$$
46
  PyMOL2.3          3D                             0

 45 48  0  0  0  0  0  0  0  0999 V2000
   36.6097   23.6280   36.1632 O   0  0  0  0  0  0  0  0  0  0  0  0
   36.4422   22.4325   36.4963 C   0  0  0  0  0  0  0  0  0  0  0  0
   37.1418   21.8994   37.3897 O   0  5  0  0  0  0  0  0  0  0  0  0
   35.3919   21.6324   35.8358 C   0  0  0  0  0  0  0  0  0  0  0  0
   34.2719   19.6796   35.4902 C   0  0  0  0  0  0  0  0  0  0  0  0
   33.7705   18.3569   35.4976 C   0  0  0  0  0  0  0  0  0  0  0  0
   32.7317   18.0036   34.6036 C   0  0  0  0  0  0  0  0  0  0  0  0
   32.2130   18.9695   33.7175 C   0  0  0  0  0  0  0  0  0  0  0  0
   32.7209   20.2881   33.7259 C   0  0  0  0  0  0  0  0  0  0  0  0
   33.7539   20.6760   34.6106 C   0  0  0  0  0  0  0  0  0  0  0  0
   34.4550   21.9062   34.8666 C   0  0  0  0  0  0  0  0  0  0  0  0
   34.1934   23.2227   34.1951 C   0  0  0  0  0  0  0  0  0  0  0  0
   33.5540   24.2743   35.1256 C   0  0  0  0  0  0  0  0  0  0  0  0
   32.2302   23.8295   35.7639 C   0  0  0  0  0  0  0  0  0  0  0  0
   31.2328   23.7845   34.7514 O   0  0  0  0  0  0  0  0  0  0  0  0
   29.9689   23.3645   35.1047 C   0  0  0  0  0  0  0  0  0  0  0  0
   27.5822   23.3667   34.4933 C   0  0  0  0  0  0  0  0  0  0  0  0
   28.9176   23.7338   34.2277 C   0  0  0  0  0  0  0  0  0  0  0  0
   34.1794   17.6231   36.1819 H   0  0  0  0  0  0  0  0  0  0  0  0
   32.3447   16.9925   34.5982 H   0  0  0  0  0  0  0  0  0  0  0  0
   31.4212   18.7000   33.0307 H   0  0  0  0  0  0  0  0  0  0  0  0
   32.2970   21.0217   33.0468 H   0  0  0  0  0  0  0  0  0  0  0  0
   33.5338   23.0677   33.3451 H   0  0  0  0  0  0  0  0  0  0  0  0
   35.1191   23.6210   33.7827 H   0  0  0  0  0  0  0  0  0  0  0  0
   33.4012   25.2048   34.5734 H   0  0  0  0  0  0  0  0  0  0  0  0
   34.2492   24.5201   35.9255 H   0  0  0  0  0  0  0  0  0  0  0  0
   31.9322   24.5521   36.5261 H   0  0  0  0  0  0  0  0  0  0  0  0
   32.3727   22.8665   36.2576 H   0  0  0  0  0  0  0  0  0  0  0  0
   29.1414   24.3147   33.3439 H   0  0  0  0  0  0  0  0  0  0  0  0
   29.6800   22.5785   36.2550 C   0  0  0  0  0  0  0  0  0  0  0  0
   26.7842   23.6639   33.8293 H   0  0  0  0  0  0  0  0  0  0  0  0
   30.4391   22.2441   36.9420 H   0  0  0  0  0  0  0  0  0  0  0  0
   35.2501   20.3126   36.2212 N   0  0  0  0  0  0  0  0  0  0  0  0
   26.3336   21.1420   37.2769 C   0  0  0  0  0  0  0  0  0  0  0  0
   27.8374   21.3288   37.6010 C   0  0  0  0  0  0  0  0  0  0  0  0
   28.3482   22.1976   36.4843 C   0  0  0  0  0  0  0  0  0  0  0  0
   27.3222   22.5987   35.6414 C   0  0  0  0  0  0  0  0  0  0  0  0
   25.9835   22.1021   36.1169 C   0  0  0  0  0  0  0  0  0  0  0  0
   25.3949   22.9495   36.4680 H   0  0  0  0  0  0  0  0  0  0  0  0
   25.4415   21.6018   35.3137 H   0  0  0  0  0  0  0  0  0  0  0  0
   25.6959   21.2949   38.1495 H   0  0  0  0  0  0  0  0  0  0  0  0
   26.1773   20.1145   36.9411 H   0  0  0  0  0  0  0  0  0  0  0  0
   28.3674   20.3763   37.6321 H   0  0  0  0  0  0  0  0  0  0  0  0
   27.9853   21.8317   38.5524 H   0  0  0  0  0  0  0  0  0  0  0  0
   35.8344   19.9278   36.9462 H   0  0  0  0  0  0  0  0  0  0  0  0
  1  2  2  0  0  0  0
  2  3  1  0  0  0  0
  2  4  1  0  0  0  0
  4 11  2  0  0  0  0
  4 33  1  0  0  0  0
  5  6  1  0  0  0  0
  5 10  2  0  0  0  0
  5 33  1  0  0  0  0
  6  7  2  0  0  0  0
  6 19  1  0  0  0  0
  7  8  1  0  0  0  0
  7 20  1  0  0  0  0
  8  9  2  0  0  0  0
  8 21  1  0  0  0  0
  9 10  1  0  0  0  0
  9 22  1  0  0  0  0
 10 11  1  0  0  0  0
 11 12  1  0  0  0  0
 12 23  1  0  0  0  0
 12 24  1  0  0  0  0
 12 13  1  0  0  0  0
 13 14  1  0  0  0  0
 13 25  1  0  0  0  0
 13 26  1  0  0  0  0
 14 15  1  0  0  0  0
 14 27  1  0  0  0  0
 14 28  1  0  0  0  0
 15 16  1  0  0  0  0
 16 18  2  0  0  0  0
 16 30  1  0  0  0  0
 17 18  1  0  0  0  0
 17 31  1  0  0  0  0
 17 37  2  0  0  0  0
 18 29  1  0  0  0  0
 30 32  1  0  0  0  0
 30 36  2  0  0  0  0
 33 45  1  0  0  0  0
 34 35  1  0  0  0  0
 34 38  1  0  0  0  0
 34 41  1  0  0  0  0
 34 42  1  0  0  0  0
 35 36  1  0  0  0  0
 35 43  1  0  0  0  0
 35 44  1  0  0  0  0
 36 37  1  0  0  0  0
 37 38  1  0  0  0  0
 38 39  1  0  0  0  0
 38 40  1  0  0  0  0
M  END
>  <r_user_dG.exp>
-7.601134

$$$$
35
  PyMOL2.3          3D                             0

 41 43  0  0  0  0  0  0  0  0999 V2000
   36.6145   23.6425   36.1275 O   0  0  0  0  0  0  0  0  0  0  0  0
   36.4591   22.4495   36.4946 C   0  0  0  0  0  0  0  0  0  0  0  0
   37.1604   21.9436   37.4006 O   0  5  0  0  0  0  0  0  0  0  0  0
   35.4252   21.6113   35.8349 C   0  0  0  0  0  0  0  0  0  0  0  0
   34.3498   19.6289   35.4868 C   0  0  0  0  0  0  0  0  0  0  0  0
   33.8753   18.2977   35.4896 C   0  0  0  0  0  0  0  0  0  0  0  0
   32.8301   17.9316   34.6179 C   0  0  0  0  0  0  0  0  0  0  0  0
   32.2622   18.8995   33.7632 C   0  0  0  0  0  0  0  0  0  0  0  0
   32.7285   20.2240   33.7768 C   0  0  0  0  0  0  0  0  0  0  0  0
   33.7814   20.6210   34.6372 C   0  0  0  0  0  0  0  0  0  0  0  0
   34.4648   21.8729   34.8896 C   0  0  0  0  0  0  0  0  0  0  0  0
   34.1643   23.2014   34.2443 C   0  0  0  0  0  0  0  0  0  0  0  0
   33.5065   24.2004   35.2211 C   0  0  0  0  0  0  0  0  0  0  0  0
   32.1439   23.7299   35.7469 C   0  0  0  0  0  0  0  0  0  0  0  0
   31.1930   23.7525   34.6878 O   0  0  0  0  0  0  0  0  0  0  0  0
   29.9064   23.3829   34.9955 C   0  0  0  0  0  0  0  0  0  0  0  0
   29.5565   22.5802   36.1105 C   0  0  0  0  0  0  0  0  0  0  0  0
   28.2164   22.2368   36.3793 C   0  0  0  0  0  0  0  0  0  0  0  0
   27.1979   22.7345   35.5306 C   0  0  0  0  0  0  0  0  0  0  0  0
   27.5371   23.5103   34.4036 C   0  0  0  0  0  0  0  0  0  0  0  0
   28.8837   23.8200   34.1359 C   0  0  0  0  0  0  0  0  0  0  0  0
   34.3142   17.5667   36.1518 H   0  0  0  0  0  0  0  0  0  0  0  0
   32.4607   16.9166   34.6119 H   0  0  0  0  0  0  0  0  0  0  0  0
   31.4550   18.6224   33.1034 H   0  0  0  0  0  0  0  0  0  0  0  0
   32.2809   20.9599   33.1249 H   0  0  0  0  0  0  0  0  0  0  0  0
   33.5237   23.0622   33.3745 H   0  0  0  0  0  0  0  0  0  0  0  0
   35.0935   23.6304   33.8707 H   0  0  0  0  0  0  0  0  0  0  0  0
   33.3899   25.1656   34.7271 H   0  0  0  0  0  0  0  0  0  0  0  0
   34.1568   24.3797   36.0789 H   0  0  0  0  0  0  0  0  0  0  0  0
   31.8120   24.4001   36.5440 H   0  0  0  0  0  0  0  0  0  0  0  0
   32.2594   22.7360   36.1775 H   0  0  0  0  0  0  0  0  0  0  0  0
   30.3141   22.1923   36.7730 H   0  0  0  0  0  0  0  0  0  0  0  0
   29.1227   24.4118   33.2678 H   0  0  0  0  0  0  0  0  0  0  0  0
   35.3426   20.2724   36.1966 N   0  0  0  0  0  0  0  0  0  0  0  0
   35.9714   19.8928   36.8982 H   0  0  0  0  0  0  0  0  0  0  0  0
   26.7623   23.8722   33.7445 H   0  0  0  0  0  0  0  0  0  0  0  0
   25.5285   22.4088   35.8398 Cl  0  0  0  0  0  0  0  0  0  0  0  0
   27.9305   21.3201   37.5664 C   0  0  0  0  0  0  0  0  0  0  0  0
   26.8677   21.0990   37.6864 H   0  0  0  0  0  0  0  0  0  0  0  0
   28.4542   20.3713   37.4307 H   0  0  0  0  0  0  0  0  0  0  0  0
   28.2922   21.7639   38.4947 H   0  0  0  0  0  0  0  0  0  0  0  0
  1  2  2  0  0  0  0
  2  3  1  0  0  0  0
  2  4  1  0  0  0  0
  4 11  2  0  0  0  0
  4 34  1  0  0  0  0
  5  6  1  0  0  0  0
  5 10  2  0  0  0  0
  5 34  1  0  0  0  0
  6  7  2  0  0  0  0
  6 22  1  0  0  0  0
  7  8  1  0  0  0  0
  7 23  1  0  0  0  0
  8  9  2  0  0  0  0
  8 24  1  0  0  0  0
  9 10  1  0  0  0  0
  9 25  1  0  0  0  0
 10 11  1  0  0  0  0
 11 12  1  0  0  0  0
 12 26  1  0  0  0  0
 12 27  1  0  0  0  0
 12 13  1  0  0  0  0
 13 14  1  0  0  0  0
 13 28  1  0  0  0  0
 13 29  1  0  0  0  0
 14 15  1  0  0  0  0
 14 30  1  0  0  0  0
 14 31  1  0  0  0  0
 15 16  1  0  0  0  0
 16 17  1  0  0  0  0
 16 21  2  0  0  0  0
 17 18  2  0  0  0  0
 17 32  1  0  0  0  0
 18 19  1  0  0  0  0
 18 38  1  0  0  0  0
 19 20  2  0  0  0  0
 19 37  1  0  0  0  0
 20 21  1  0  0  0  0
 20 36  1  0  0  0  0
 21 33  1  0  0  0  0
 34 35  1  0  0  0  0
 38 39  1  0  0  0  0
 38 40  1  0  0  0  0
 38 41  1  0  0  0  0
M  END
>  <r_user_dG.exp>
-8.812646

$$$$
31
  PyMOL2.3          3D                             0

 41 43  0  0  0  0  0  0  0  0999 V2000
   36.6037   23.7019   36.0644 O   0  0  0  0  0  0  0  0  0  0  0  0
   36.4255   22.5102   36.4372 C   0  0  0  0  0  0  0  0  0  0  0  0
   37.0961   21.9862   37.3536 O   0  5  0  0  0  0  0  0  0  0  0  0
   35.3859   21.6942   35.7507 C   0  0  0  0  0  0  0  0  0  0  0  0
   34.3231   19.7096   35.3563 C   0  0  0  0  0  0  0  0  0  0  0  0
   33.8622   18.3720   35.3223 C   0  0  0  0  0  0  0  0  0  0  0  0
   32.7672   18.0356   34.5037 C   0  0  0  0  0  0  0  0  0  0  0  0
   32.1485   19.0253   33.7143 C   0  0  0  0  0  0  0  0  0  0  0  0
   32.6111   20.3569   33.7472 C   0  0  0  0  0  0  0  0  0  0  0  0
   33.7004   20.7336   34.5723 C   0  0  0  0  0  0  0  0  0  0  0  0
   34.3925   21.9723   34.8407 C   0  0  0  0  0  0  0  0  0  0  0  0
   34.0613   23.3239   34.2507 C   0  0  0  0  0  0  0  0  0  0  0  0
   33.3744   24.2566   35.2679 C   0  0  0  0  0  0  0  0  0  0  0  0
   32.0108   23.7519   35.7506 C   0  0  0  0  0  0  0  0  0  0  0  0
   31.0862   23.9171   34.6863 O   0  0  0  0  0  0  0  0  0  0  0  0
   29.7928   23.5032   34.8836 C   0  0  0  0  0  0  0  0  0  0  0  0
   29.3911   22.5889   35.8899 C   0  0  0  0  0  0  0  0  0  0  0  0
   28.0452   22.1941   36.0055 C   0  0  0  0  0  0  0  0  0  0  0  0
   27.0846   22.7325   35.1216 C   0  0  0  0  0  0  0  0  0  0  0  0
   27.4740   23.6382   34.1198 C   0  0  0  0  0  0  0  0  0  0  0  0
   28.8239   24.0155   34.0041 C   0  0  0  0  0  0  0  0  0  0  0  0
   34.3519   17.6280   35.9245 H   0  0  0  0  0  0  0  0  0  0  0  0
   32.4160   17.0169   34.4818 H   0  0  0  0  0  0  0  0  0  0  0  0
   31.3209   18.7515   33.0862 H   0  0  0  0  0  0  0  0  0  0  0  0
   32.1177   21.1009   33.1337 H   0  0  0  0  0  0  0  0  0  0  0  0
   33.4480   23.2115   33.3490 H   0  0  0  0  0  0  0  0  0  0  0  0
   34.9837   23.7924   33.9111 H   0  0  0  0  0  0  0  0  0  0  0  0
   33.2600   25.2468   34.8281 H   0  0  0  0  0  0  0  0  0  0  0  0
   34.0231   24.3851   36.1308 H   0  0  0  0  0  0  0  0  0  0  0  0
   31.6796   24.3319   36.6155 H   0  0  0  0  0  0  0  0  0  0  0  0
   32.0919   22.7126   36.0690 H   0  0  0  0  0  0  0  0  0  0  0  0
   30.1120   22.1634   36.5660 H   0  0  0  0  0  0  0  0  0  0  0  0
   29.1164   24.7062   33.2283 H   0  0  0  0  0  0  0  0  0  0  0  0
   35.3468   20.3299   36.0484 N   0  0  0  0  0  0  0  0  0  0  0  0
   36.0213   19.9084   36.6935 H   0  0  0  0  0  0  0  0  0  0  0  0
   26.7404   24.0389   33.4363 H   0  0  0  0  0  0  0  0  0  0  0  0
   26.0516   22.4350   35.2061 H   0  0  0  0  0  0  0  0  0  0  0  0
   26.5240   21.5776   37.6762 F   0  0  0  0  0  0  0  0  0  0  0  0
   27.6196   21.1642   37.0396 C   0  0  0  0  0  0  0  0  0  0  0  0
   27.3503   20.0159   36.4183 F   0  0  0  0  0  0  0  0  0  0  0  0
   28.5789   20.9487   37.9415 F   0  0  0  0  0  0  0  0  0  0  0  0
  1  2  2  0  0  0  0
  2  3  1  0  0  0  0
  2  4  1  0  0  0  0
  4 11  2  0  0  0  0
  4 34  1  0  0  0  0
  5  6  1  0  0  0  0
  5 10  2  0  0  0  0
  5 34  1  0  0  0  0
  6  7  2  0  0  0  0
  6 22  1  0  0  0  0
  7  8  1  0  0  0  0
  7 23  1  0  0  0  0
  8  9  2  0  0  0  0
  8 24  1  0  0  0  0
  9 10  1  0  0  0  0
  9 25  1  0  0  0  0
 10 11  1  0  0  0  0
 11 12  1  0  0  0  0
 12 26  1  0  0  0  0
 12 27  1  0  0  0  0
 12 13  1  0  0  0  0
 13 14  1  0  0  0  0
 13 28  1  0  0  0  0
 13 29  1  0  0  0  0
 14 15  1  0  0  0  0
 14 30  1  0  0  0  0
 14 31  1  0  0  0  0
 15 16  1  0  0  0  0
 16 17  1  0  0  0  0
 16 21  2  0  0  0  0
 17 18  2  0  0  0  0
 17 32  1  0  0  0  0
 18 19  1  0  0  0  0
 18 39  1  0  0  0  0
 19 20  2  0  0  0  0
 19 37  1  0  0  0  0
 20 21  1  0  0  0  0
 20 36  1  0  0  0  0
 21 33  1  0  0  0  0
 34 35  1  0  0  0  0
 38 39  1  0  0  0  0
 39 40  1  0  0  0  0
 39 41  1  0  0  0  0
M  END
>  <r_user_dG.exp>
-7.919517

$$$$
52
  PyMOL2.3          3D                             0

 41 43  0  0  0  0  0  0  0  0999 V2000
   37.4023   21.3936   37.4031 O   0  0  0  0  0  0  0  0  0  0  0  0
   36.5611   22.0846   36.7868 C   0  0  0  0  0  0  0  0  0  0  0  0
   36.5692   23.3319   36.8117 O   0  5  0  0  0  0  0  0  0  0  0  0
   35.5058   21.4041   36.0135 C   0  0  0  0  0  0  0  0  0  0  0  0
   34.2499   19.5969   35.4484 C   0  0  0  0  0  0  0  0  0  0  0  0
   33.6362   18.3400   35.3399 C   0  0  0  0  0  0  0  0  0  0  0  0
   32.4516   18.2206   34.5940 C   0  0  0  0  0  0  0  0  0  0  0  0
   31.9151   19.3339   33.9166 C   0  0  0  0  0  0  0  0  0  0  0  0
   32.5433   20.5871   34.0226 C   0  0  0  0  0  0  0  0  0  0  0  0
   33.7146   20.7491   34.8046 C   0  0  0  0  0  0  0  0  0  0  0  0
   34.5348   21.8742   35.1615 C   0  0  0  0  0  0  0  0  0  0  0  0
   34.2908   23.2925   34.7757 C   0  0  0  0  0  0  0  0  0  0  0  0
   33.5972   24.0332   35.9296 C   0  0  0  0  0  0  0  0  0  0  0  0
   32.6026   25.0779   35.4162 C   0  0  0  0  0  0  0  0  0  0  0  0
   31.5905   24.5448   34.5775 O   0  0  0  0  0  0  0  0  0  0  0  0
   30.5913   23.7448   35.0989 C   0  0  0  0  0  0  0  0  0  0  0  0
   29.5879   23.3276   34.1987 C   0  0  0  0  0  0  0  0  0  0  0  0
   28.4766   22.5729   34.6399 C   0  0  0  0  0  0  0  0  0  0  0  0
   27.3555   22.2498   33.6667 C   0  0  0  0  0  0  0  0  0  0  0  0
   28.4122   22.1637   35.9908 C   0  0  0  0  0  0  0  0  0  0  0  0
   27.1026   21.1990   36.5742 Cl  0  0  0  0  0  0  0  0  0  0  0  0
   29.4114   22.5624   36.8939 C   0  0  0  0  0  0  0  0  0  0  0  0
   30.4716   23.3782   36.4613 C   0  0  0  0  0  0  0  0  0  0  0  0
   34.0531   17.4880   35.8606 H   0  0  0  0  0  0  0  0  0  0  0  0
   31.6178   16.7235   34.5377 Cl  0  0  0  0  0  0  0  0  0  0  0  0
   31.0003   19.2314   33.3475 H   0  0  0  0  0  0  0  0  0  0  0  0
   32.1102   21.4486   33.5257 H   0  0  0  0  0  0  0  0  0  0  0  0
   33.6798   23.3147   33.8763 H   0  0  0  0  0  0  0  0  0  0  0  0
   35.2256   23.7962   34.5105 H   0  0  0  0  0  0  0  0  0  0  0  0
   34.3377   24.5192   36.5637 H   0  0  0  0  0  0  0  0  0  0  0  0
   33.1021   23.3131   36.5757 H   0  0  0  0  0  0  0  0  0  0  0  0
   33.1890   25.7844   34.8393 H   0  0  0  0  0  0  0  0  0  0  0  0
   32.1542   25.6691   36.1968 H   0  0  0  0  0  0  0  0  0  0  0  0
   29.6542   23.6257   33.1627 H   0  0  0  0  0  0  0  0  0  0  0  0
   27.0294   21.2106   33.7690 H   0  0  0  0  0  0  0  0  0  0  0  0
   26.5002   22.8953   33.8688 H   0  0  0  0  0  0  0  0  0  0  0  0
   27.6582   22.4044   32.6307 H   0  0  0  0  0  0  0  0  0  0  0  0
   31.1703   23.7261   37.2059 H   0  0  0  0  0  0  0  0  0  0  0  0
   29.3574   22.2627   37.9293 H   0  0  0  0  0  0  0  0  0  0  0  0
   35.3658   20.0336   36.1349 N   0  0  0  0  0  0  0  0  0  0  0  0
   35.9999   19.5054   36.7195 H   0  0  0  0  0  0  0  0  0  0  0  0
  1  2  2  0  0  0  0
  2  3  1  0  0  0  0
  2  4  1  0  0  0  0
  4 11  2  0  0  0  0
  4 40  1  0  0  0  0
  5  6  1  0  0  0  0
  5 10  2  0  0  0  0
  5 40  1  0  0  0  0
  6  7  2  0  0  0  0
  6 24  1  0  0  0  0
  7  8  1  0  0  0  0
  7 25  1  0  0  0  0
  8  9  2  0  0  0  0
  8 26  1  0  0  0  0
  9 10  1  0  0  0  0
  9 27  1  0  0  0  0
 10 11  1  0  0  0  0
 11 12  1  0  0  0  0
 12 28  1  0  0  0  0
 12 29  1  0  0  0  0
 12 13  1  0  0  0  0
 13 14  1  0  0  0  0
 13 30  1  0  0  0  0
 13 31  1  0  0  0  0
 14 15  1  0  0  0  0
 14 32  1  0  0  0  0
 14 33  1  0  0  0  0
 15 16  1  0  0  0  0
 16 17  1  0  0  0  0
 16 23  2  0  0  0  0
 17 18  2  0  0  0  0
 17 34  1  0  0  0  0
 18 19  1  0  0  0  0
 18 20  1  0  0  0  0
 19 35  1  0  0  0  0
 19 36  1  0  0  0  0
 19 37  1  0  0  0  0
 20 21  1  0  0  0  0
 20 22  2  0  0  0  0
 22 23  1  0  0  0  0
 22 39  1  0  0  0  0
 23 38  1  0  0  0  0
 40 41  1  0  0  0  0
M  END
>  <r_user_dG.exp>
-9.225852

$$$$
68
  PyMOL2.3          3D                             0

 43 46  0  0  0  0  0  0  0  0999 V2000
   37.4428   21.9571   36.8103 O   0  0  0  0  0  0  0  0  0  0  0  0
   36.3503   22.4344   36.4165 C   0  0  0  0  0  0  0  0  0  0  0  0
   36.1281   23.6639   36.4706 O   0  5  0  0  0  0  0  0  0  0  0  0
   35.3095   21.5218   35.8812 C   0  0  0  0  0  0  0  0  0  0  0  0
   34.4580   19.5234   35.4162 C   0  0  0  0  0  0  0  0  0  0  0  0
   34.2519   18.1360   35.2984 C   0  0  0  0  0  0  0  0  0  0  0  0
   33.0313   17.6709   34.7744 C   0  0  0  0  0  0  0  0  0  0  0  0
   32.0465   18.6013   34.3731 C   0  0  0  0  0  0  0  0  0  0  0  0
   32.2782   19.9965   34.4875 C   0  0  0  0  0  0  0  0  0  0  0  0
   33.4918   20.4861   35.0263 C   0  0  0  0  0  0  0  0  0  0  0  0
   34.0679   21.7690   35.3190 C   0  0  0  0  0  0  0  0  0  0  0  0
   33.4333   23.1048   35.0585 C   0  0  0  0  0  0  0  0  0  0  0  0
   32.8151   23.7418   36.3181 C   0  0  0  0  0  0  0  0  0  0  0  0
   31.5864   22.9905   36.8517 C   0  0  0  0  0  0  0  0  0  0  0  0
   30.5789   23.0938   35.8584 O   0  0  0  0  0  0  0  0  0  0  0  0
   29.3116   22.6355   36.1478 C   0  0  0  0  0  0  0  0  0  0  0  0
   26.6593   21.7706   36.6335 C   0  0  0  0  0  0  0  0  0  0  0  0
   27.6872   21.4395   37.5356 C   0  0  0  0  0  0  0  0  0  0  0  0
   29.0069   21.8687   37.2977 C   0  0  0  0  0  0  0  0  0  0  0  0
   35.0249   17.4591   35.6191 H   0  0  0  0  0  0  0  0  0  0  0  0
   32.8567   16.6130   34.6794 H   0  0  0  0  0  0  0  0  0  0  0  0
   30.5413   18.0218   33.7498 Cl  0  0  0  0  0  0  0  0  0  0  0  0
   31.5057   20.6836   34.1785 H   0  0  0  0  0  0  0  0  0  0  0  0
   32.6769   23.0238   34.2793 H   0  0  0  0  0  0  0  0  0  0  0  0
   34.1855   23.7863   34.6546 H   0  0  0  0  0  0  0  0  0  0  0  0
   32.5206   24.7698   36.0803 H   0  0  0  0  0  0  0  0  0  0  0  0
   33.5616   23.8224   37.1112 H   0  0  0  0  0  0  0  0  0  0  0  0
   31.2424   23.4573   37.7759 H   0  0  0  0  0  0  0  0  0  0  0  0
   31.8319   21.9482   37.0579 H   0  0  0  0  0  0  0  0  0  0  0  0
   29.7639   21.5957   38.0147 H   0  0  0  0  0  0  0  0  0  0  0  0
   26.9503   22.5238   35.4825 C   0  0  0  0  0  0  0  0  0  0  0  0
   28.2780   22.9516   35.2349 C   0  0  0  0  0  0  0  0  0  0  0  0
   28.5594   23.7003   34.0691 C   0  0  0  0  0  0  0  0  0  0  0  0
   27.5256   24.0217   33.1683 C   0  0  0  0  0  0  0  0  0  0  0  0
   26.2046   23.5999   33.4249 C   0  0  0  0  0  0  0  0  0  0  0  0
   25.9180   22.8519   34.5811 C   0  0  0  0  0  0  0  0  0  0  0  0
   29.5667   24.0313   33.8510 H   0  0  0  0  0  0  0  0  0  0  0  0
   27.7524   24.5952   32.2740 H   0  0  0  0  0  0  0  0  0  0  0  0
   25.4139   23.8518   32.7293 H   0  0  0  0  0  0  0  0  0  0  0  0
   24.9073   22.5287   34.7728 H   0  0  0  0  0  0  0  0  0  0  0  0
   27.4652   20.8592   38.4228 H   0  0  0  0  0  0  0  0  0  0  0  0
   25.6509   21.4407   36.8364 H   0  0  0  0  0  0  0  0  0  0  0  0
   35.5683   20.1662   35.9232 O   0  0  0  0  0  0  0  0  0  0  0  0
  1  2  2  0  0  0  0
  2  3  1  0  0  0  0
  2  4  1  0  0  0  0
  4 11  2  0  0  0  0
  4 43  1  0  0  0  0
  5  6  1  0  0  0  0
  5 10  2  0  0  0  0
  5 43  1  0  0  0  0
  6  7  2  0  0  0  0
  6 20  1  0  0  0  0
  7  8  1  0  0  0  0
  7 21  1  0  0  0  0
  8  9  2  0  0  0  0
  8 22  1  0  0  0  0
  9 10  1  0  0  0  0
  9 23  1  0  0  0  0
 10 11  1  0  0  0  0
 11 12  1  0  0  0  0
 12 24  1  0  0  0  0
 12 25  1  0  0  0  0
 12 13  1  0  0  0  0
 13 14  1  0  0  0  0
 13 26  1  0  0  0  0
 13 27  1  0  0  0  0
 14 15  1  0  0  0  0
 14 28  1  0  0  0  0
 14 29  1  0  0  0  0
 15 16  1  0  0  0  0
 16 19  2  0  0  0  0
 16 32  1  0  0  0  0
 17 18  2  0  0  0  0
 17 31  1  0  0  0  0
 17 42  1  0  0  0  0
 18 19  1  0  0  0  0
 18 41  1  0  0  0  0
 19 30  1  0  0  0  0
 31 32  2  0  0  0  0
 31 36  1  0  0  0  0
 32 33  1  0  0  0  0
 33 34  2  0  0  0  0
 33 37  1  0  0  0  0
 34 35  1  0  0  0  0
 34 38  1  0  0  0  0
 35 36  2  0  0  0  0
 35 39  1  0  0  0  0
 36 40  1  0  0  0  0
M  END
>  <r_user_dG.exp>
-7.689612

$$$$
32
  PyMOL2.3          3D                             0

 41 43  0  0  0  0  0  0  0  0999 V2000
   36.6189   23.6433   36.1035 O   0  0  0  0  0  0  0  0  0  0  0  0
   36.4522   22.4585   36.4674 C   0  0  0  0  0  0  0  0  0  0  0  0
   37.1381   21.9537   37.3931 O   0  5  0  0  0  0  0  0  0  0  0  0
   35.4240   21.6150   35.8124 C   0  0  0  0  0  0  0  0  0  0  0  0
   34.3386   19.6214   35.4996 C   0  0  0  0  0  0  0  0  0  0  0  0
   33.8617   18.2925   35.5255 C   0  0  0  0  0  0  0  0  0  0  0  0
   32.8107   17.9123   34.6669 C   0  0  0  0  0  0  0  0  0  0  0  0
   32.2431   18.8612   33.7920 C   0  0  0  0  0  0  0  0  0  0  0  0
   32.7215   20.1866   33.7786 C   0  0  0  0  0  0  0  0  0  0  0  0
   33.7739   20.6059   34.6273 C   0  0  0  0  0  0  0  0  0  0  0  0
   34.4625   21.8567   34.8535 C   0  0  0  0  0  0  0  0  0  0  0  0
   34.1672   23.1695   34.1674 C   0  0  0  0  0  0  0  0  0  0  0  0
   33.5545   24.2286   35.1037 C   0  0  0  0  0  0  0  0  0  0  0  0
   32.2096   23.8123   35.7051 C   0  0  0  0  0  0  0  0  0  0  0  0
   31.2145   23.7847   34.6905 O   0  0  0  0  0  0  0  0  0  0  0  0
   29.9355   23.4245   35.0604 C   0  0  0  0  0  0  0  0  0  0  0  0
   29.6052   22.8960   36.3319 C   0  0  0  0  0  0  0  0  0  0  0  0
   28.2737   22.5646   36.6395 C   0  0  0  0  0  0  0  0  0  0  0  0
   27.2509   22.7644   35.6979 C   0  0  0  0  0  0  0  0  0  0  0  0
   27.5767   23.2762   34.4272 C   0  0  0  0  0  0  0  0  0  0  0  0
   28.9073   23.5982   34.1094 C   0  0  0  0  0  0  0  0  0  0  0  0
   34.3079   17.5787   36.1990 H   0  0  0  0  0  0  0  0  0  0  0  0
   32.4459   16.8969   34.6916 H   0  0  0  0  0  0  0  0  0  0  0  0
   31.4378   18.5695   33.1403 H   0  0  0  0  0  0  0  0  0  0  0  0
   32.2777   20.9092   33.1058 H   0  0  0  0  0  0  0  0  0  0  0  0
   33.4925   23.0020   33.3301 H   0  0  0  0  0  0  0  0  0  0  0  0
   35.0844   23.5640   33.7333 H   0  0  0  0  0  0  0  0  0  0  0  0
   33.4362   25.1602   34.5539 H   0  0  0  0  0  0  0  0  0  0  0  0
   34.2377   24.4590   35.9237 H   0  0  0  0  0  0  0  0  0  0  0  0
   31.9251   24.5332   36.4746 H   0  0  0  0  0  0  0  0  0  0  0  0
   32.3141   22.8385   36.1854 H   0  0  0  0  0  0  0  0  0  0  0  0
   30.3468   22.7347   37.0969 H   0  0  0  0  0  0  0  0  0  0  0  0
   29.1358   23.9926   33.1309 H   0  0  0  0  0  0  0  0  0  0  0  0
   35.3399   20.2815   36.1959 N   0  0  0  0  0  0  0  0  0  0  0  0
   35.9778   19.9027   36.9002 H   0  0  0  0  0  0  0  0  0  0  0  0
   26.8029   23.4345   33.6886 H   0  0  0  0  0  0  0  0  0  0  0  0
   28.0413   22.1621   37.6130 H   0  0  0  0  0  0  0  0  0  0  0  0
   25.8162   22.4368   36.0685 C   0  0  0  0  0  0  0  0  0  0  0  0
   25.1275   22.6683   35.2501 H   0  0  0  0  0  0  0  0  0  0  0  0
   25.7255   21.3748   36.3094 H   0  0  0  0  0  0  0  0  0  0  0  0
   25.5155   23.0164   36.9458 H   0  0  0  0  0  0  0  0  0  0  0  0
  1  2  2  0  0  0  0
  2  3  1  0  0  0  0
  2  4  1  0  0  0  0
  4 11  2  0  0  0  0
  4 34  1  0  0  0  0
  5  6  1  0  0  0  0
  5 10  2  0  0  0  0
  5 34  1  0  0  0  0
  6  7  2  0  0  0  0
  6 22  1  0  0  0  0
  7  8  1  0  0  0  0
  7 23  1  0  0  0  0
  8  9  2  0  0  0  0
  8 24  1  0  0  0  0
  9 10  1  0  0  0  0
  9 25  1  0  0  0  0
 10 11  1  0  0  0  0
 11 12  1  0  0  0  0
 12 26  1  0  0  0  0
 12 27  1  0  0  0  0
 12 13  1  0  0  0  0
 13 14  1  0  0  0  0
 13 28  1  0  0  0  0
 13 29  1  0  0  0  0
 14 15  1  0  0  0  0
 14 30  1  0  0  0  0
 14 31  1  0  0  0  0
 15 16  1  0  0  0  0
 16 17  1  0  0  0  0
 16 21  2  0  0  0  0
 17 18  2  0  0  0  0
 17 32  1  0  0  0  0
 18 19  1  0  0  0  0
 18 37  1  0  0  0  0
 19 20  2  0  0  0  0
 19 38  1  0  0  0  0
 20 21  1  0  0  0  0
 20 36  1  0  0  0  0
 21 33  1  0  0  0  0
 34 35  1  0  0  0  0
 38 39  1  0  0  0  0
 38 40  1  0  0  0  0
 38 41  1  0  0  0  0
M  END
>  <r_user_dG.exp>
-6.583017

$$$$
38
  PyMOL2.3          3D                             0

 48 51  0  0  0  0  0  0  0  0999 V2000
   37.2850   21.5313   37.3557 O   0  0  0  0  0  0  0  0  0  0  0  0
   36.5026   22.1961   36.6345 C   0  0  0  0  0  0  0  0  0  0  0  0
   36.5900   23.4399   36.5440 O   0  5  0  0  0  0  0  0  0  0  0  0
   35.4392   21.4822   35.8914 C   0  0  0  0  0  0  0  0  0  0  0  0
   34.3237   19.5550   35.3629 C   0  0  0  0  0  0  0  0  0  0  0  0
   33.8540   18.2276   35.2424 C   0  0  0  0  0  0  0  0  0  0  0  0
   32.7950   17.9491   34.3554 C   0  0  0  0  0  0  0  0  0  0  0  0
   32.2102   19.0024   33.6185 C   0  0  0  0  0  0  0  0  0  0  0  0
   32.6859   20.3227   33.7609 C   0  0  0  0  0  0  0  0  0  0  0  0
   33.7607   20.6377   34.6268 C   0  0  0  0  0  0  0  0  0  0  0  0
   34.4837   21.8465   34.9616 C   0  0  0  0  0  0  0  0  0  0  0  0
   34.2711   23.2229   34.3666 C   0  0  0  0  0  0  0  0  0  0  0  0
   33.2081   24.0797   35.0795 C   0  0  0  0  0  0  0  0  0  0  0  0
   31.7676   23.5668   34.8865 C   0  0  0  0  0  0  0  0  0  0  0  0
   31.4491   22.6370   35.9197 O   0  0  0  0  0  0  0  0  0  0  0  0
   30.1226   22.3140   36.0851 C   0  0  0  0  0  0  0  0  0  0  0  0
   29.1313   22.4639   35.0791 C   0  0  0  0  0  0  0  0  0  0  0  0
   27.7836   22.1083   35.3255 C   0  0  0  0  0  0  0  0  0  0  0  0
   27.4401   21.6230   36.6108 C   0  0  0  0  0  0  0  0  0  0  0  0
   28.4207   21.4684   37.6038 C   0  0  0  0  0  0  0  0  0  0  0  0
   29.7525   21.8100   37.3414 C   0  0  0  0  0  0  0  0  0  0  0  0
   34.3188   17.4364   35.8112 H   0  0  0  0  0  0  0  0  0  0  0  0
   32.4336   16.9342   34.2439 H   0  0  0  0  0  0  0  0  0  0  0  0
   31.3938   18.7899   32.9394 H   0  0  0  0  0  0  0  0  0  0  0  0
   32.2135   21.1172   33.2004 H   0  0  0  0  0  0  0  0  0  0  0  0
   33.9868   23.1339   33.3183 H   0  0  0  0  0  0  0  0  0  0  0  0
   35.2197   23.7696   34.3577 H   0  0  0  0  0  0  0  0  0  0  0  0
   33.2673   25.0689   34.6374 H   0  0  0  0  0  0  0  0  0  0  0  0
   33.4524   24.2182   36.1318 H   0  0  0  0  0  0  0  0  0  0  0  0
   31.6484   23.1041   33.8932 H   0  0  0  0  0  0  0  0  0  0  0  0
   31.0946   24.4230   34.9464 H   0  0  0  0  0  0  0  0  0  0  0  0
   29.3988   22.8224   34.0992 H   0  0  0  0  0  0  0  0  0  0  0  0
   30.4984   21.6987   38.1007 H   0  0  0  0  0  0  0  0  0  0  0  0
   35.3358   20.1150   36.1276 N   0  0  0  0  0  0  0  0  0  0  0  0
   35.9660   19.6565   36.7866 H   0  0  0  0  0  0  0  0  0  0  0  0
   28.1429   21.0934   38.5758 H   0  0  0  0  0  0  0  0  0  0  0  0
   26.4215   21.3512   36.8492 H   0  0  0  0  0  0  0  0  0  0  0  0
   24.8028   22.3926   32.1960 C   0  0  0  0  0  0  0  0  0  0  0  0
   25.8925   23.2867   32.2136 C   0  0  0  0  0  0  0  0  0  0  0  0
   26.8486   23.2039   33.2516 C   0  0  0  0  0  0  0  0  0  0  0  0
   26.7485   22.2221   34.2704 C   0  0  0  0  0  0  0  0  0  0  0  0
   25.6317   21.3480   34.2361 C   0  0  0  0  0  0  0  0  0  0  0  0
   24.6636   21.4399   33.2206 C   0  0  0  0  0  0  0  0  0  0  0  0
   24.0795   22.4530   31.3938 H   0  0  0  0  0  0  0  0  0  0  0  0
   26.0134   24.0353   31.4439 H   0  0  0  0  0  0  0  0  0  0  0  0
   27.6745   23.9120   33.2420 H   0  0  0  0  0  0  0  0  0  0  0  0
   25.5140   20.5717   34.9693 H   0  0  0  0  0  0  0  0  0  0  0  0
   23.8290   20.7558   33.2008 H   0  0  0  0  0  0  0  0  0  0  0  0
  1  2  2  0  0  0  0
  2  3  1  0  0  0  0
  2  4  1  0  0  0  0
  4 11  2  0  0  0  0
  4 34  1  0  0  0  0
  5  6  1  0  0  0  0
  5 10  2  0  0  0  0
  5 34  1  0  0  0  0
  6  7  2  0  0  0  0
  6 22  1  0  0  0  0
  7  8  1  0  0  0  0
  7 23  1  0  0  0  0
  8  9  2  0  0  0  0
  8 24  1  0  0  0  0
  9 10  1  0  0  0  0
  9 25  1  0  0  0  0
 10 11  1  0  0  0  0
 11 12  1  0  0  0  0
 12 26  1  0  0  0  0
 12 27  1  0  0  0  0
 12 13  1  0  0  0  0
 13 14  1  0  0  0  0
 13 28  1  0  0  0  0
 13 29  1  0  0  0  0
 14 15  1  0  0  0  0
 14 30  1  0  0  0  0
 14 31  1  0  0  0  0
 15 16  1  0  0  0  0
 16 17  1  0  0  0  0
 16 21  2  0  0  0  0
 17 18  2  0  0  0  0
 17 32  1  0  0  0  0
 18 19  1  0  0  0  0
 18 41  1  0  0  0  0
 19 20  2  0  0  0  0
 19 37  1  0  0  0  0
 20 21  1  0  0  0  0
 20 36  1  0  0  0  0
 21 33  1  0  0  0  0
 34 35  1  0  0  0  0
 38 39  2  0  0  0  0
 38 43  1  0  0  0  0
 38 44  1  0  0  0  0
 39 40  1  0  0  0  0
 39 45  1  0  0  0  0
 40 41  2  0  0  0  0
 40 46  1  0  0  0  0
 41 42  1  0  0  0  0
 42 43  2  0  0  0  0
 42 47  1  0  0  0  0
 43 48  1  0  0  0  0
M  END
>  <r_user_dG.exp>
-7.019008

$$$$
51
  PyMOL2.3          3D                             0

 44 47  0  0  0  0  0  0  0  0999 V2000
   37.4143   22.0202   36.7265 O   0  0  0  0  0  0  0  0  0  0  0  0
   36.3221   22.4891   36.3234 C   0  0  0  0  0  0  0  0  0  0  0  0
   36.0485   23.7037   36.4655 O   0  5  0  0  0  0  0  0  0  0  0  0
   35.3526   21.5646   35.6752 C   0  0  0  0  0  0  0  0  0  0  0  0
   34.5865   19.4823   35.0890 C   0  0  0  0  0  0  0  0  0  0  0  0
   34.3784   18.1010   34.8986 C   0  0  0  0  0  0  0  0  0  0  0  0
   33.1945   17.6553   34.2792 C   0  0  0  0  0  0  0  0  0  0  0  0
   32.2396   18.6030   33.8589 C   0  0  0  0  0  0  0  0  0  0  0  0
   32.4385   19.9866   34.0642 C   0  0  0  0  0  0  0  0  0  0  0  0
   33.6244   20.4638   34.6846 C   0  0  0  0  0  0  0  0  0  0  0  0
   34.1214   21.7616   35.0756 C   0  0  0  0  0  0  0  0  0  0  0  0
   33.3974   23.0625   34.9637 C   0  0  0  0  0  0  0  0  0  0  0  0
   32.5927   23.3009   36.2408 C   0  0  0  0  0  0  0  0  0  0  0  0
   31.5230   24.3802   36.1207 C   0  0  0  0  0  0  0  0  0  0  0  0
   30.4920   23.9808   35.2253 O   0  0  0  0  0  0  0  0  0  0  0  0
   29.4334   23.2332   35.6988 C   0  0  0  0  0  0  0  0  0  0  0  0
   27.2032   21.7360   36.6038 C   0  0  0  0  0  0  0  0  0  0  0  0
   28.3750   21.7932   37.3742 C   0  0  0  0  0  0  0  0  0  0  0  0
   29.4851   22.5146   36.9133 C   0  0  0  0  0  0  0  0  0  0  0  0
   35.1239   17.3866   35.2342 H   0  0  0  0  0  0  0  0  0  0  0  0
   33.0313   16.6022   34.1311 H   0  0  0  0  0  0  0  0  0  0  0  0
   31.3394   18.2557   33.3802 H   0  0  0  0  0  0  0  0  0  0  0  0
   31.1772   21.0736   33.5683 Cl  0  0  0  0  0  0  0  0  0  0  0  0
   32.7377   23.0758   34.0948 H   0  0  0  0  0  0  0  0  0  0  0  0
   34.0935   23.8907   34.7942 H   0  0  0  0  0  0  0  0  0  0  0  0
   33.2880   23.5501   37.0357 H   0  0  0  0  0  0  0  0  0  0  0  0
   32.1202   22.3659   36.5492 H   0  0  0  0  0  0  0  0  0  0  0  0
   31.9955   25.2771   35.7192 H   0  0  0  0  0  0  0  0  0  0  0  0
   31.1121   24.6467   37.0997 H   0  0  0  0  0  0  0  0  0  0  0  0
   30.3687   22.5281   37.5290 H   0  0  0  0  0  0  0  0  0  0  0  0
   27.1264   22.4332   35.3859 C   0  0  0  0  0  0  0  0  0  0  0  0
   28.2433   23.1878   34.9342 C   0  0  0  0  0  0  0  0  0  0  0  0
   28.1397   23.9111   33.7216 C   0  0  0  0  0  0  0  0  0  0  0  0
   26.9450   23.8871   32.9767 C   0  0  0  0  0  0  0  0  0  0  0  0
   25.8493   23.1213   33.4261 C   0  0  0  0  0  0  0  0  0  0  0  0
   25.9408   22.3918   34.6243 C   0  0  0  0  0  0  0  0  0  0  0  0
   28.9723   24.4971   33.3682 H   0  0  0  0  0  0  0  0  0  0  0  0
   26.8718   24.4555   32.0571 H   0  0  0  0  0  0  0  0  0  0  0  0
   24.9321   23.1032   32.8528 H   0  0  0  0  0  0  0  0  0  0  0  0
   25.0985   21.8116   34.9659 H   0  0  0  0  0  0  0  0  0  0  0  0
   28.4273   21.2623   38.3140 H   0  0  0  0  0  0  0  0  0  0  0  0
   26.3533   21.1676   36.9571 H   0  0  0  0  0  0  0  0  0  0  0  0
   35.6200   20.2045   35.6669 N   0  0  0  0  0  0  0  0  0  0  0  0
   36.4667   19.8539   36.0886 H   0  0  0  0  0  0  0  0  0  0  0  0
  1  2  2  0  0  0  0
  2  3  1  0  0  0  0
  2  4  1  0  0  0  0
  4 11  2  0  0  0  0
  4 43  1  0  0  0  0
  5  6  1  0  0  0  0
  5 10  2  0  0  0  0
  5 43  1  0  0  0  0
  6  7  2  0  0  0  0
  6 20  1  0  0  0  0
  7  8  1  0  0  0  0
  7 21  1  0  0  0  0
  8  9  2  0  0  0  0
  8 22  1  0  0  0  0
  9 10  1  0  0  0  0
  9 23  1  0  0  0  0
 10 11  1  0  0  0  0
 11 12  1  0  0  0  0
 12 24  1  0  0  0  0
 12 25  1  0  0  0  0
 12 13  1  0  0  0  0
 13 14  1  0  0  0  0
 13 26  1  0  0  0  0
 13 27  1  0  0  0  0
 14 15  1  0  0  0  0
 14 28  1  0  0  0  0
 14 29  1  0  0  0  0
 15 16  1  0  0  0  0
 16 19  2  0  0  0  0
 16 32  1  0  0  0  0
 17 18  2  0  0  0  0
 17 31  1  0  0  0  0
 17 42  1  0  0  0  0
 18 19  1  0  0  0  0
 18 41  1  0  0  0  0
 19 30  1  0  0  0  0
 31 32  2  0  0  0  0
 31 36  1  0  0  0  0
 32 33  1  0  0  0  0
 33 34  2  0  0  0  0
 33 37  1  0  0  0  0
 34 35  1  0  0  0  0
 34 38  1  0  0  0  0
 35 36  2  0  0  0  0
 35 39  1  0  0  0  0
 36 40  1  0  0  0  0
 43 44  1  0  0  0  0
M  END
>  <r_user_dG.exp>
-8.448465

$$$$
50
  PyMOL2.3          3D                             0

 44 46  0  0  0  0  0  0  0  0999 V2000
   37.4986   21.7933   36.9107 O   0  0  0  0  0  0  0  0  0  0  0  0
   36.5023   22.3279   36.3617 C   0  0  0  0  0  0  0  0  0  0  0  0
   36.3696   23.5710   36.3207 O   0  5  0  0  0  0  0  0  0  0  0  0
   35.4786   21.4347   35.7577 C   0  0  0  0  0  0  0  0  0  0  0  0
   34.6460   19.3619   35.2884 C   0  0  0  0  0  0  0  0  0  0  0  0
   34.3870   17.9815   35.1838 C   0  0  0  0  0  0  0  0  0  0  0  0
   33.2234   17.5365   34.5381 C   0  0  0  0  0  0  0  0  0  0  0  0
   32.3248   18.4737   33.9937 C   0  0  0  0  0  0  0  0  0  0  0  0
   32.5787   19.8586   34.1122 C   0  0  0  0  0  0  0  0  0  0  0  0
   33.7489   20.3377   34.7716 C   0  0  0  0  0  0  0  0  0  0  0  0
   34.2774   21.6455   35.1031 C   0  0  0  0  0  0  0  0  0  0  0  0
   33.6135   22.9605   34.8315 C   0  0  0  0  0  0  0  0  0  0  0  0
   32.5971   23.2925   35.9380 C   0  0  0  0  0  0  0  0  0  0  0  0
   31.6352   24.4208   35.5539 C   0  0  0  0  0  0  0  0  0  0  0  0
   30.7830   23.9876   34.5007 O   0  0  0  0  0  0  0  0  0  0  0  0
   29.6059   23.3366   34.8068 C   0  0  0  0  0  0  0  0  0  0  0  0
   29.2796   22.8176   36.0812 C   0  0  0  0  0  0  0  0  0  0  0  0
   28.0825   22.1007   36.2787 C   0  0  0  0  0  0  0  0  0  0  0  0
   27.8003   21.4943   37.6342 C   0  0  0  0  0  0  0  0  0  0  0  0
   27.1826   21.9152   35.2079 C   0  0  0  0  0  0  0  0  0  0  0  0
   25.7370   21.0005   35.4336 Cl  0  0  0  0  0  0  0  0  0  0  0  0
   27.4816   22.4625   33.9431 C   0  0  0  0  0  0  0  0  0  0  0  0
   26.5436   22.2666   32.7652 C   0  0  0  0  0  0  0  0  0  0  0  0
   28.6948   23.1575   33.7481 C   0  0  0  0  0  0  0  0  0  0  0  0
   35.0863   17.2704   35.6050 H   0  0  0  0  0  0  0  0  0  0  0  0
   33.0205   16.4736   34.4607 H   0  0  0  0  0  0  0  0  0  0  0  0
   31.4341   18.1138   33.4935 H   0  0  0  0  0  0  0  0  0  0  0  0
   31.4152   20.9580   33.4482 Cl  0  0  0  0  0  0  0  0  0  0  0  0
   33.1130   22.9443   33.8593 H   0  0  0  0  0  0  0  0  0  0  0  0
   34.3438   23.7605   34.7622 H   0  0  0  0  0  0  0  0  0  0  0  0
   33.1363   23.5570   36.8548 H   0  0  0  0  0  0  0  0  0  0  0  0
   32.0254   22.3947   36.1737 H   0  0  0  0  0  0  0  0  0  0  0  0
   32.2086   25.2803   35.2010 H   0  0  0  0  0  0  0  0  0  0  0  0
   31.0724   24.7819   36.4183 H   0  0  0  0  0  0  0  0  0  0  0  0
   29.9532   22.9434   36.9130 H   0  0  0  0  0  0  0  0  0  0  0  0
   26.8084   21.7803   38.0002 H   0  0  0  0  0  0  0  0  0  0  0  0
   27.8394   20.4003   37.5812 H   0  0  0  0  0  0  0  0  0  0  0  0
   28.5352   21.8119   38.3812 H   0  0  0  0  0  0  0  0  0  0  0  0
   26.9044   22.7785   31.8720 H   0  0  0  0  0  0  0  0  0  0  0  0
   26.4642   21.2014   32.5314 H   0  0  0  0  0  0  0  0  0  0  0  0
   25.5535   22.6447   33.0002 H   0  0  0  0  0  0  0  0  0  0  0  0
   28.9339   23.5624   32.7743 H   0  0  0  0  0  0  0  0  0  0  0  0
   35.6932   20.0648   35.8568 N   0  0  0  0  0  0  0  0  0  0  0  0
   36.5327   19.6998   36.3104 H   0  0  0  0  0  0  0  0  0  0  0  0
  1  2  2  0  0  0  0
  2  3  1  0  0  0  0
  2  4  1  0  0  0  0
  4 11  2  0  0  0  0
  4 43  1  0  0  0  0
  5  6  1  0  0  0  0
  5 10  2  0  0  0  0
  5 43  1  0  0  0  0
  6  7  2  0  0  0  0
  6 25  1  0  0  0  0
  7  8  1  0  0  0  0
  7 26  1  0  0  0  0
  8  9  2  0  0  0  0
  8 27  1  0  0  0  0
  9 10  1  0  0  0  0
  9 28  1  0  0  0  0
 10 11  1  0  0  0  0
 11 12  1  0  0  0  0
 12 29  1  0  0  0  0
 12 30  1  0  0  0  0
 12 13  1  0  0  0  0
 13 14  1  0  0  0  0
 13 31  1  0  0  0  0
 13 32  1  0  0  0  0
 14 15  1  0  0  0  0
 14 33  1  0  0  0  0
 14 34  1  0  0  0  0
 15 16  1  0  0  0  0
 16 17  1  0  0  0  0
 16 24  2  0  0  0  0
 17 18  2  0  0  0  0
 17 35  1  0  0  0  0
 18 19  1  0  0  0  0
 18 20  1  0  0  0  0
 19 36  1  0  0  0  0
 19 37  1  0  0  0  0
 19 38  1  0  0  0  0
 20 21  1  0  0  0  0
 20 22  2  0  0  0  0
 22 23  1  0  0  0  0
 22 24  1  0  0  0  0
 23 39  1  0  0  0  0
 23 40  1  0  0  0  0
 23 41  1  0  0  0  0
 24 42  1  0  0  0  0
 43 44  1  0  0  0  0
M  END
>  <r_user_dG.exp>
-9.328297

$$$$
28
  PyMOL2.3          3D                             0

 41 43  0  0  0  0  0  0  0  0999 V2000
   37.7509   21.6069   36.8192 O   0  0  0  0  0  0  0  0  0  0  0  0
   36.7118   22.1959   36.4463 C   0  0  0  0  0  0  0  0  0  0  0  0
   36.5874   23.4386   36.5591 O   0  5  0  0  0  0  0  0  0  0  0  0
   35.6057   21.3925   35.8788 C   0  0  0  0  0  0  0  0  0  0  0  0
   34.6832   19.3798   35.3051 C   0  0  0  0  0  0  0  0  0  0  0  0
   34.3853   18.0262   35.0643 C   0  0  0  0  0  0  0  0  0  0  0  0
   33.1351   17.6743   34.5267 C   0  0  0  0  0  0  0  0  0  0  0  0
   32.1936   18.6795   34.2271 C   0  0  0  0  0  0  0  0  0  0  0  0
   32.5016   20.0342   34.4690 C   0  0  0  0  0  0  0  0  0  0  0  0
   33.7506   20.4185   35.0135 C   0  0  0  0  0  0  0  0  0  0  0  0
   34.3525   21.6771   35.3761 C   0  0  0  0  0  0  0  0  0  0  0  0
   33.6849   23.0157   35.2559 C   0  0  0  0  0  0  0  0  0  0  0  0
   32.7812   23.2893   36.4708 C   0  0  0  0  0  0  0  0  0  0  0  0
   31.6733   24.3104   36.1847 C   0  0  0  0  0  0  0  0  0  0  0  0
   30.7426   23.8128   35.2231 O   0  0  0  0  0  0  0  0  0  0  0  0
   29.6856   23.0277   35.6371 C   0  0  0  0  0  0  0  0  0  0  0  0
   28.6979   22.7086   34.6760 C   0  0  0  0  0  0  0  0  0  0  0  0
   27.5862   21.9143   35.0235 C   0  0  0  0  0  0  0  0  0  0  0  0
   27.4467   21.4262   36.3350 C   0  0  0  0  0  0  0  0  0  0  0  0
   28.4211   21.7327   37.3028 C   0  0  0  0  0  0  0  0  0  0  0  0
   29.5353   22.5263   36.9569 C   0  0  0  0  0  0  0  0  0  0  0  0
   35.1128   17.2606   35.2953 H   0  0  0  0  0  0  0  0  0  0  0  0
   32.8911   16.6372   34.3442 H   0  0  0  0  0  0  0  0  0  0  0  0
   31.2348   18.4095   33.8071 H   0  0  0  0  0  0  0  0  0  0  0  0
   31.7655   20.7922   34.2367 H   0  0  0  0  0  0  0  0  0  0  0  0
   33.0934   23.0447   34.3397 H   0  0  0  0  0  0  0  0  0  0  0  0
   34.4205   23.8134   35.1467 H   0  0  0  0  0  0  0  0  0  0  0  0
   33.4012   23.6218   37.3069 H   0  0  0  0  0  0  0  0  0  0  0  0
   32.3181   22.3568   36.7924 H   0  0  0  0  0  0  0  0  0  0  0  0
   32.1206   25.2196   35.7760 H   0  0  0  0  0  0  0  0  0  0  0  0
   31.1745   24.6205   37.1025 H   0  0  0  0  0  0  0  0  0  0  0  0
   30.2595   22.7372   37.7298 H   0  0  0  0  0  0  0  0  0  0  0  0
   35.7908   20.0176   35.8231 N   0  0  0  0  0  0  0  0  0  0  0  0
   36.6571   19.6091   36.1517 H   0  0  0  0  0  0  0  0  0  0  0  0
   28.3094   21.3582   38.3090 H   0  0  0  0  0  0  0  0  0  0  0  0
   26.5950   20.8167   36.5974 H   0  0  0  0  0  0  0  0  0  0  0  0
   26.8332   21.6768   34.2853 H   0  0  0  0  0  0  0  0  0  0  0  0
   28.8225   23.2216   33.2569 C   0  0  0  0  0  0  0  0  0  0  0  0
   28.0182   22.8441   32.6253 H   0  0  0  0  0  0  0  0  0  0  0  0
   28.7846   24.3142   33.2475 H   0  0  0  0  0  0  0  0  0  0  0  0
   29.7743   22.9047   32.8271 H   0  0  0  0  0  0  0  0  0  0  0  0
  1  2  2  0  0  0  0
  2  3  1  0  0  0  0
  2  4  1  0  0  0  0
  4 11  2  0  0  0  0
  4 33  1  0  0  0  0
  5  6  1  0  0  0  0
  5 10  2  0  0  0  0
  5 33  1  0  0  0  0
  6  7  2  0  0  0  0
  6 22  1  0  0  0  0
  7  8  1  0  0  0  0
  7 23  1  0  0  0  0
  8  9  2  0  0  0  0
  8 24  1  0  0  0  0
  9 10  1  0  0  0  0
  9 25  1  0  0  0  0
 10 11  1  0  0  0  0
 11 12  1  0  0  0  0
 12 26  1  0  0  0  0
 12 27  1  0  0  0  0
 12 13  1  0  0  0  0
 13 14  1  0  0  0  0
 13 28  1  0  0  0  0
 13 29  1  0  0  0  0
 14 15  1  0  0  0  0
 14 30  1  0  0  0  0
 14 31  1  0  0  0  0
 15 16  1  0  0  0  0
 16 17  1  0  0  0  0
 16 21  2  0  0  0  0
 17 18  2  0  0  0  0
 17 38  1  0  0  0  0
 18 19  1  0  0  0  0
 18 37  1  0  0  0  0
 19 20  2  0  0  0  0
 19 36  1  0  0  0  0
 20 21  1  0  0  0  0
 20 35  1  0  0  0  0
 21 32  1  0  0  0  0
 33 34  1  0  0  0  0
 38 39  1  0  0  0  0
 38 40  1  0  0  0  0
 38 41  1  0  0  0  0
M  END
>  <r_user_dG.exp>
-6.621490

$$$$
66
  PyMOL2.3          3D                             0

 43 46  0  0  0  0  0  0  0  0999 V2000
   36.7593   23.6838   35.5311 O   0  0  0  0  0  0  0  0  0  0  0  0
   36.4766   22.6584   36.1801 C   0  0  0  0  0  0  0  0  0  0  0  0
   37.0141   22.4597   37.2891 O   0  5  0  0  0  0  0  0  0  0  0  0
   35.4555   21.7082   35.6545 C   0  0  0  0  0  0  0  0  0  0  0  0
   35.5663   20.0733   36.2582 S   0  0  0  0  0  0  0  0  0  0  0  0
   34.1620   19.5685   35.3215 C   0  0  0  0  0  0  0  0  0  0  0  0
   33.5685   18.2863   35.2527 C   0  0  0  0  0  0  0  0  0  0  0  0
   32.4079   18.0842   34.4849 C   0  0  0  0  0  0  0  0  0  0  0  0
   31.8403   19.1612   33.7891 C   0  0  0  0  0  0  0  0  0  0  0  0
   32.4493   20.4275   33.8402 C   0  0  0  0  0  0  0  0  0  0  0  0
   33.6300   20.6765   34.5892 C   0  0  0  0  0  0  0  0  0  0  0  0
   34.4058   21.8909   34.7651 C   0  0  0  0  0  0  0  0  0  0  0  0
   34.0698   23.2057   34.0969 C   0  0  0  0  0  0  0  0  0  0  0  0
   33.4457   24.2461   35.0422 C   0  0  0  0  0  0  0  0  0  0  0  0
   32.2780   23.7092   35.8844 C   0  0  0  0  0  0  0  0  0  0  0  0
   31.1541   23.3964   35.0715 O   0  0  0  0  0  0  0  0  0  0  0  0
   30.0691   22.7671   35.6678 C   0  0  0  0  0  0  0  0  0  0  0  0
   27.8182   21.4616   36.8239 C   0  0  0  0  0  0  0  0  0  0  0  0
   28.9888   21.6505   37.5816 C   0  0  0  0  0  0  0  0  0  0  0  0
   30.0997   22.3048   37.0117 C   0  0  0  0  0  0  0  0  0  0  0  0
   34.2538   16.9510   36.1096 Cl  0  0  0  0  0  0  0  0  0  0  0  0
   31.9476   17.0978   34.4399 H   0  0  0  0  0  0  0  0  0  0  0  0
   30.9323   19.0199   33.2090 H   0  0  0  0  0  0  0  0  0  0  0  0
   31.9943   21.2415   33.2998 H   0  0  0  0  0  0  0  0  0  0  0  0
   33.3647   23.0207   33.2991 H   0  0  0  0  0  0  0  0  0  0  0  0
   34.9596   23.6261   33.6230 H   0  0  0  0  0  0  0  0  0  0  0  0
   33.1352   25.1240   34.4756 H   0  0  0  0  0  0  0  0  0  0  0  0
   34.2170   24.5896   35.7296 H   0  0  0  0  0  0  0  0  0  0  0  0
   31.9908   24.4594   36.6185 H   0  0  0  0  0  0  0  0  0  0  0  0
   32.6371   22.8410   36.4313 H   0  0  0  0  0  0  0  0  0  0  0  0
   30.9724   22.4255   37.6439 H   0  0  0  0  0  0  0  0  0  0  0  0
   27.7687   21.9160   35.4915 C   0  0  0  0  0  0  0  0  0  0  0  0
   28.8860   22.5615   34.9120 C   0  0  0  0  0  0  0  0  0  0  0  0
   28.7964   22.9982   33.5716 C   0  0  0  0  0  0  0  0  0  0  0  0
   27.6149   22.8022   32.8335 C   0  0  0  0  0  0  0  0  0  0  0  0
   26.5170   22.1605   33.4160 C   0  0  0  0  0  0  0  0  0  0  0  0
   26.5908   21.7177   34.7456 C   0  0  0  0  0  0  0  0  0  0  0  0
   29.6334   23.4964   33.0925 H   0  0  0  0  0  0  0  0  0  0  0  0
   27.5540   23.1450   31.8073 H   0  0  0  0  0  0  0  0  0  0  0  0
   25.6075   22.0021   32.8475 H   0  0  0  0  0  0  0  0  0  0  0  0
   25.7328   21.2250   35.1967 H   0  0  0  0  0  0  0  0  0  0  0  0
   29.0364   21.2971   38.6067 H   0  0  0  0  0  0  0  0  0  0  0  0
   26.9692   20.9647   37.2785 H   0  0  0  0  0  0  0  0  0  0  0  0
  1  2  2  0  0  0  0
  2  3  1  0  0  0  0
  2  4  1  0  0  0  0
  4  5  1  0  0  0  0
  4 12  2  0  0  0  0
  5  6  1  0  0  0  0
  6  7  1  0  0  0  0
  6 11  2  0  0  0  0
  7  8  2  0  0  0  0
  7 21  1  0  0  0  0
  8  9  1  0  0  0  0
  8 22  1  0  0  0  0
  9 10  2  0  0  0  0
  9 23  1  0  0  0  0
 10 11  1  0  0  0  0
 10 24  1  0  0  0  0
 11 12  1  0  0  0  0
 12 13  1  0  0  0  0
 13 25  1  0  0  0  0
 13 26  1  0  0  0  0
 13 14  1  0  0  0  0
 14 15  1  0  0  0  0
 14 27  1  0  0  0  0
 14 28  1  0  0  0  0
 15 16  1  0  0  0  0
 15 29  1  0  0  0  0
 15 30  1  0  0  0  0
 16 17  1  0  0  0  0
 17 20  2  0  0  0  0
 17 33  1  0  0  0  0
 18 19  2  0  0  0  0
 18 32  1  0  0  0  0
 18 43  1  0  0  0  0
 19 20  1  0  0  0  0
 19 42  1  0  0  0  0
 20 31  1  0  0  0  0
 32 33  2  0  0  0  0
 32 37  1  0  0  0  0
 33 34  1  0  0  0  0
 34 35  2  0  0  0  0
 34 38  1  0  0  0  0
 35 36  1  0  0  0  0
 35 39  1  0  0  0  0
 36 37  2  0  0  0  0
 36 40  1  0  0  0  0
 37 41  1  0  0  0  0
M  END
>  <r_user_dG.exp>
-8.431671

$$$$
39
  PyMOL2.3          3D                             0

 48 51  0  0  0  0  0  0  0  0999 V2000
   37.7709   21.0691   37.3390 O   0  0  0  0  0  0  0  0  0  0  0  0
   37.0212   21.8374   36.6799 C   0  0  0  0  0  0  0  0  0  0  0  0
   37.0980   23.0758   36.7272 O   0  5  0  0  0  0  0  0  0  0  0  0
   35.9869   21.1905   35.8295 C   0  0  0  0  0  0  0  0  0  0  0  0
   34.7692   19.3517   35.2618 C   0  0  0  0  0  0  0  0  0  0  0  0
   34.1882   18.0734   35.1728 C   0  0  0  0  0  0  0  0  0  0  0  0
   33.0239   17.8967   34.4050 C   0  0  0  0  0  0  0  0  0  0  0  0
   32.4759   18.9818   33.7083 C   0  0  0  0  0  0  0  0  0  0  0  0
   33.0774   20.2553   33.7821 C   0  0  0  0  0  0  0  0  0  0  0  0
   34.2198   20.4740   34.5661 C   0  0  0  0  0  0  0  0  0  0  0  0
   35.0407   21.6299   34.9203 C   0  0  0  0  0  0  0  0  0  0  0  0
   34.8134   23.0226   34.4720 C   0  0  0  0  0  0  0  0  0  0  0  0
   33.4388   23.5532   34.9362 C   0  0  0  0  0  0  0  0  0  0  0  0
   32.9447   23.1258   36.3553 C   0  0  0  0  0  0  0  0  0  0  0  0
   31.7622   23.7799   36.8126 O   0  0  0  0  0  0  0  0  0  0  0  0
   30.5882   23.4318   36.1863 C   0  0  0  0  0  0  0  0  0  0  0  0
   29.5880   22.6813   36.8548 C   0  0  0  0  0  0  0  0  0  0  0  0
   28.3503   22.4189   36.2106 C   0  0  0  0  0  0  0  0  0  0  0  0
   28.1062   22.8487   34.8749 C   0  0  0  0  0  0  0  0  0  0  0  0
   29.1439   23.5663   34.2346 C   0  0  0  0  0  0  0  0  0  0  0  0
   30.3489   23.8617   34.8839 C   0  0  0  0  0  0  0  0  0  0  0  0
   34.6361   17.2705   35.7398 H   0  0  0  0  0  0  0  0  0  0  0  0
   32.5767   16.9241   34.3713 H   0  0  0  0  0  0  0  0  0  0  0  0
   31.5725   18.8461   33.1353 H   0  0  0  0  0  0  0  0  0  0  0  0
   32.6159   21.0898   33.2574 H   0  0  0  0  0  0  0  0  0  0  0  0
   34.8884   23.0411   33.3751 H   0  0  0  0  0  0  0  0  0  0  0  0
   35.6379   23.6554   34.8003 H   0  0  0  0  0  0  0  0  0  0  0  0
   32.6804   23.1865   34.2252 H   0  0  0  0  0  0  0  0  0  0  0  0
   33.4499   24.6234   34.8099 H   0  0  0  0  0  0  0  0  0  0  0  0
   33.7032   23.3271   37.1150 H   0  0  0  0  0  0  0  0  0  0  0  0
   32.7512   22.0482   36.4144 H   0  0  0  0  0  0  0  0  0  0  0  0
   29.7708   22.3209   37.8607 H   0  0  0  0  0  0  0  0  0  0  0  0
   31.1277   24.4381   34.3910 H   0  0  0  0  0  0  0  0  0  0  0  0
   35.8434   19.8287   35.9684 N   0  0  0  0  0  0  0  0  0  0  0  0
   36.4824   19.3251   36.5849 H   0  0  0  0  0  0  0  0  0  0  0  0
   29.0190   23.8974   33.2136 H   0  0  0  0  0  0  0  0  0  0  0  0
   27.5969   21.8700   36.7609 H   0  0  0  0  0  0  0  0  0  0  0  0
   24.5596   21.8859   32.5696 C   0  0  0  0  0  0  0  0  0  0  0  0
   25.3185   23.0200   32.2553 C   0  0  0  0  0  0  0  0  0  0  0  0
   26.4375   23.3587   33.0427 C   0  0  0  0  0  0  0  0  0  0  0  0
   26.8453   22.5456   34.1387 C   0  0  0  0  0  0  0  0  0  0  0  0
   26.0417   21.4208   34.4488 C   0  0  0  0  0  0  0  0  0  0  0  0
   24.9109   21.0978   33.6720 C   0  0  0  0  0  0  0  0  0  0  0  0
   23.7162   21.6170   31.9540 H   0  0  0  0  0  0  0  0  0  0  0  0
   25.0614   23.6288   31.4062 H   0  0  0  0  0  0  0  0  0  0  0  0
   26.9889   24.2458   32.7685 H   0  0  0  0  0  0  0  0  0  0  0  0
   26.3095   20.7724   35.2747 H   0  0  0  0  0  0  0  0  0  0  0  0
   24.3290   20.2247   33.9184 H   0  0  0  0  0  0  0  0  0  0  0  0
  1  2  2  0  0  0  0
  2  3  1  0  0  0  0
  2  4  1  0  0  0  0
  4 11  2  0  0  0  0
  4 34  1  0  0  0  0
  5  6  1  0  0  0  0
  5 10  2  0  0  0  0
  5 34  1  0  0  0  0
  6  7  2  0  0  0  0
  6 22  1  0  0  0  0
  7  8  1  0  0  0  0
  7 23  1  0  0  0  0
  8  9  2  0  0  0  0
  8 24  1  0  0  0  0
  9 10  1  0  0  0  0
  9 25  1  0  0  0  0
 10 11  1  0  0  0  0
 11 12  1  0  0  0  0
 12 26  1  0  0  0  0
 12 27  1  0  0  0  0
 12 13  1  0  0  0  0
 13 14  1  0  0  0  0
 13 28  1  0  0  0  0
 13 29  1  0  0  0  0
 14 15  1  0  0  0  0
 14 30  1  0  0  0  0
 14 31  1  0  0  0  0
 15 16  1  0  0  0  0
 16 17  1  0  0  0  0
 16 21  2  0  0  0  0
 17 18  2  0  0  0  0
 17 32  1  0  0  0  0
 18 19  1  0  0  0  0
 18 37  1  0  0  0  0
 19 20  2  0  0  0  0
 19 41  1  0  0  0  0
 20 21  1  0  0  0  0
 20 36  1  0  0  0  0
 21 33  1  0  0  0  0
 34 35  1  0  0  0  0
 38 39  2  0  0  0  0
 38 43  1  0  0  0  0
 38 44  1  0  0  0  0
 39 40  1  0  0  0  0
 39 45  1  0  0  0  0
 40 41  2  0  0  0  0
 40 46  1  0  0  0  0
 41 42  1  0  0  0  0
 42 43  2  0  0  0  0
 42 47  1  0  0  0  0
 43 48  1  0  0  0  0
M  END
>  <r_user_dG.exp>
-7.026800

$$$$
37
  PyMOL2.3          3D                             0

 44 46  0  0  0  0  0  0  0  0999 V2000
   37.7025   21.4664   37.1011 O   0  0  0  0  0  0  0  0  0  0  0  0
   36.7176   22.0684   36.6120 C   0  0  0  0  0  0  0  0  0  0  0  0
   36.6109   23.3095   36.6809 O   0  5  0  0  0  0  0  0  0  0  0  0
   35.6697   21.2641   35.9454 C   0  0  0  0  0  0  0  0  0  0  0  0
   34.7453   19.2650   35.3361 C   0  0  0  0  0  0  0  0  0  0  0  0
   34.4161   17.9106   35.1225 C   0  0  0  0  0  0  0  0  0  0  0  0
   33.2081   17.5870   34.4657 C   0  0  0  0  0  0  0  0  0  0  0  0
   32.3529   18.6095   34.0201 C   0  0  0  0  0  0  0  0  0  0  0  0
   32.6907   19.9611   34.2355 C   0  0  0  0  0  0  0  0  0  0  0  0
   33.9014   20.3231   34.9041 C   0  0  0  0  0  0  0  0  0  0  0  0
   34.4951   21.5743   35.3046 C   0  0  0  0  0  0  0  0  0  0  0  0
   33.8857   22.9278   35.0910 C   0  0  0  0  0  0  0  0  0  0  0  0
   32.9726   23.3096   36.2655 C   0  0  0  0  0  0  0  0  0  0  0  0
   31.9594   24.4059   35.9237 C   0  0  0  0  0  0  0  0  0  0  0  0
   31.1332   23.9979   34.8389 O   0  0  0  0  0  0  0  0  0  0  0  0
   29.9606   23.3184   35.0776 C   0  0  0  0  0  0  0  0  0  0  0  0
   29.6139   22.7337   36.3194 C   0  0  0  0  0  0  0  0  0  0  0  0
   28.4165   22.0017   36.4610 C   0  0  0  0  0  0  0  0  0  0  0  0
   28.1024   21.3239   37.7792 C   0  0  0  0  0  0  0  0  0  0  0  0
   27.5299   21.8740   35.3653 C   0  0  0  0  0  0  0  0  0  0  0  0
   26.0692   20.9640   35.5316 Cl  0  0  0  0  0  0  0  0  0  0  0  0
   27.8623   22.4778   34.1298 C   0  0  0  0  0  0  0  0  0  0  0  0
   26.9513   22.3160   32.9279 C   0  0  0  0  0  0  0  0  0  0  0  0
   29.0758   23.1846   33.9915 C   0  0  0  0  0  0  0  0  0  0  0  0
   35.0722   17.1335   35.4651 H   0  0  0  0  0  0  0  0  0  0  0  0
   32.9360   16.5574   34.3037 H   0  0  0  0  0  0  0  0  0  0  0  0
   31.4313   18.3641   33.5127 H   0  0  0  0  0  0  0  0  0  0  0  0
   32.0145   20.7352   33.8892 H   0  0  0  0  0  0  0  0  0  0  0  0
   33.3226   22.9212   34.1567 H   0  0  0  0  0  0  0  0  0  0  0  0
   34.6634   23.6831   34.9633 H   0  0  0  0  0  0  0  0  0  0  0  0
   33.5843   23.6025   37.1173 H   0  0  0  0  0  0  0  0  0  0  0  0
   32.4173   22.4272   36.5874 H   0  0  0  0  0  0  0  0  0  0  0  0
   32.4888   25.3102   35.6106 H   0  0  0  0  0  0  0  0  0  0  0  0
   31.3773   24.6825   36.7998 H   0  0  0  0  0  0  0  0  0  0  0  0
   30.2684   22.8010   37.1746 H   0  0  0  0  0  0  0  0  0  0  0  0
   27.1493   21.6725   38.1787 H   0  0  0  0  0  0  0  0  0  0  0  0
   28.0477   20.2422   37.6404 H   0  0  0  0  0  0  0  0  0  0  0  0
   28.8750   21.5174   38.5258 H   0  0  0  0  0  0  0  0  0  0  0  0
   27.3205   22.8791   32.0677 H   0  0  0  0  0  0  0  0  0  0  0  0
   26.8841   21.2633   32.6402 H   0  0  0  0  0  0  0  0  0  0  0  0
   25.9468   22.6724   33.1591 H   0  0  0  0  0  0  0  0  0  0  0  0
   29.3386   23.6129   33.0375 H   0  0  0  0  0  0  0  0  0  0  0  0
   35.8227   19.8883   35.9482 N   0  0  0  0  0  0  0  0  0  0  0  0
   36.6125   19.4634   36.3980 H   0  0  0  0  0  0  0  0  0  0  0  0
  1  2  2  0  0  0  0
  2  3  1  0  0  0  0
  2  4  1  0  0  0  0
  4 11  2  0  0  0  0
  4 43  1  0  0  0  0
  5  6  1  0  0  0  0
  5 10  2  0  0  0  0
  5 43  1  0  0  0  0
  6  7  2  0  0  0  0
  6 25  1  0  0  0  0
  7  8  1  0  0  0  0
  7 26  1  0  0  0  0
  8  9  2  0  0  0  0
  8 27  1  0  0  0  0
  9 10  1  0  0  0  0
  9 28  1  0  0  0  0
 10 11  1  0  0  0  0
 11 12  1  0  0  0  0
 12 29  1  0  0  0  0
 12 30  1  0  0  0  0
 12 13  1  0  0  0  0
 13 14  1  0  0  0  0
 13 31  1  0  0  0  0
 13 32  1  0  0  0  0
 14 15  1  0  0  0  0
 14 33  1  0  0  0  0
 14 34  1  0  0  0  0
 15 16  1  0  0  0  0
 16 17  1  0  0  0  0
 16 24  2  0  0  0  0
 17 18  2  0  0  0  0
 17 35  1  0  0  0  0
 18 19  1  0  0  0  0
 18 20  1  0  0  0  0
 19 36  1  0  0  0  0
 19 37  1  0  0  0  0
 19 38  1  0  0  0  0
 20 21  1  0  0  0  0
 20 22  2  0  0  0  0
 22 23  1  0  0  0  0
 22 24  1  0  0  0  0
 23 39  1  0  0  0  0
 23 40  1  0  0  0  0
 23 41  1  0  0  0  0
 24 42  1  0  0  0  0
 43 44  1  0  0  0  0
M  END
>  <r_user_dG.exp>
-8.953565

$$$$
30
  PyMOL2.3          3D                             0

 41 43  0  0  0  0  0  0  0  0999 V2000
   37.5111   21.6245   36.8581 O   0  0  0  0  0  0  0  0  0  0  0  0
   36.5792   22.3116   36.3656 C   0  0  0  0  0  0  0  0  0  0  0  0
   36.5662   23.5550   36.4397 O   0  5  0  0  0  0  0  0  0  0  0  0
   35.4493   21.6059   35.7073 C   0  0  0  0  0  0  0  0  0  0  0  0
   34.2998   19.7268   35.1312 C   0  0  0  0  0  0  0  0  0  0  0  0
   33.8330   18.4151   34.9386 C   0  0  0  0  0  0  0  0  0  0  0  0
   32.5933   18.2135   34.2934 C   0  0  0  0  0  0  0  0  0  0  0  0
   31.8566   19.3187   33.8374 C   0  0  0  0  0  0  0  0  0  0  0  0
   32.3401   20.6295   34.0240 C   0  0  0  0  0  0  0  0  0  0  0  0
   33.5781   20.8679   34.6844 C   0  0  0  0  0  0  0  0  0  0  0  0
   34.3232   22.0521   35.0437 C   0  0  0  0  0  0  0  0  0  0  0  0
   33.9347   23.4823   34.7642 C   0  0  0  0  0  0  0  0  0  0  0  0
   33.3376   24.1886   35.9984 C   0  0  0  0  0  0  0  0  0  0  0  0
   32.0088   23.5805   36.4599 C   0  0  0  0  0  0  0  0  0  0  0  0
   31.0179   23.9303   35.5055 O   0  0  0  0  0  0  0  0  0  0  0  0
   29.7754   23.3545   35.6188 C   0  0  0  0  0  0  0  0  0  0  0  0
   29.4136   22.4165   36.6201 C   0  0  0  0  0  0  0  0  0  0  0  0
   28.1233   21.8526   36.6421 C   0  0  0  0  0  0  0  0  0  0  0  0
   27.1722   22.2438   35.6795 C   0  0  0  0  0  0  0  0  0  0  0  0
   27.5167   23.1812   34.6872 C   0  0  0  0  0  0  0  0  0  0  0  0
   28.8145   23.7259   34.6569 C   0  0  0  0  0  0  0  0  0  0  0  0
   34.4100   17.5771   35.2860 H   0  0  0  0  0  0  0  0  0  0  0  0
   32.2233   17.2125   34.1478 H   0  0  0  0  0  0  0  0  0  0  0  0
   30.9111   19.1584   33.3358 H   0  0  0  0  0  0  0  0  0  0  0  0
   31.7557   21.4645   33.6681 H   0  0  0  0  0  0  0  0  0  0  0  0
   33.2258   23.5273   33.9349 H   0  0  0  0  0  0  0  0  0  0  0  0
   34.8096   24.0458   34.4254 H   0  0  0  0  0  0  0  0  0  0  0  0
   33.1891   25.2460   35.7766 H   0  0  0  0  0  0  0  0  0  0  0  0
   34.0583   24.1490   36.8120 H   0  0  0  0  0  0  0  0  0  0  0  0
   31.7348   23.9762   37.4378 H   0  0  0  0  0  0  0  0  0  0  0  0
   32.1067   22.4989   36.5574 H   0  0  0  0  0  0  0  0  0  0  0  0
   30.1172   22.1036   37.3746 H   0  0  0  0  0  0  0  0  0  0  0  0
   29.0818   24.4314   33.8849 H   0  0  0  0  0  0  0  0  0  0  0  0
   35.4437   20.2265   35.7324 N   0  0  0  0  0  0  0  0  0  0  0  0
   36.2060   19.7047   36.1600 H   0  0  0  0  0  0  0  0  0  0  0  0
   26.7913   23.4787   33.9435 H   0  0  0  0  0  0  0  0  0  0  0  0
   26.1794   21.8200   35.6889 H   0  0  0  0  0  0  0  0  0  0  0  0
   27.7797   20.8100   37.6883 C   0  0  0  0  0  0  0  0  0  0  0  0
   26.7432   20.4813   37.5938 H   0  0  0  0  0  0  0  0  0  0  0  0
   28.4286   19.9400   37.5655 H   0  0  0  0  0  0  0  0  0  0  0  0
   27.9285   21.2113   38.6928 H   0  0  0  0  0  0  0  0  0  0  0  0
  1  2  2  0  0  0  0
  2  3  1  0  0  0  0
  2  4  1  0  0  0  0
  4 11  2  0  0  0  0
  4 34  1  0  0  0  0
  5  6  1  0  0  0  0
  5 10  2  0  0  0  0
  5 34  1  0  0  0  0
  6  7  2  0  0  0  0
  6 22  1  0  0  0  0
  7  8  1  0  0  0  0
  7 23  1  0  0  0  0
  8  9  2  0  0  0  0
  8 24  1  0  0  0  0
  9 10  1  0  0  0  0
  9 25  1  0  0  0  0
 10 11  1  0  0  0  0
 11 12  1  0  0  0  0
 12 26  1  0  0  0  0
 12 27  1  0  0  0  0
 12 13  1  0  0  0  0
 13 14  1  0  0  0  0
 13 28  1  0  0  0  0
 13 29  1  0  0  0  0
 14 15  1  0  0  0  0
 14 30  1  0  0  0  0
 14 31  1  0  0  0  0
 15 16  1  0  0  0  0
 16 17  1  0  0  0  0
 16 21  2  0  0  0  0
 17 18  2  0  0  0  0
 17 32  1  0  0  0  0
 18 19  1  0  0  0  0
 18 38  1  0  0  0  0
 19 20  2  0  0  0  0
 19 37  1  0  0  0  0
 20 21  1  0  0  0  0
 20 36  1  0  0  0  0
 21 33  1  0  0  0  0
 34 35  1  0  0  0  0
 38 39  1  0  0  0  0
 38 40  1  0  0  0  0
 38 41  1  0  0  0  0
M  END
>  <r_user_dG.exp>
-7.853212

$$$$
54
  PyMOL2.3          3D                             0

 44 47  0  0  0  0  0  0  0  0999 V2000
   37.4528   21.4548   36.9102 O   0  0  0  0  0  0  0  0  0  0  0  0
   36.5445   22.1989   36.4562 C   0  0  0  0  0  0  0  0  0  0  0  0
   36.5858   23.4364   36.5705 O   0  5  0  0  0  0  0  0  0  0  0  0
   35.3896   21.5605   35.7876 C   0  0  0  0  0  0  0  0  0  0  0  0
   34.1583   19.7246   35.2201 C   0  0  0  0  0  0  0  0  0  0  0  0
   33.6170   18.4340   35.0534 C   0  0  0  0  0  0  0  0  0  0  0  0
   32.3622   18.3051   34.4161 C   0  0  0  0  0  0  0  0  0  0  0  0
   31.6954   19.4378   33.9293 C   0  0  0  0  0  0  0  0  0  0  0  0
   32.2382   20.7190   34.1060 C   0  0  0  0  0  0  0  0  0  0  0  0
   33.4900   20.8972   34.7681 C   0  0  0  0  0  0  0  0  0  0  0  0
   34.2635   22.0486   35.1398 C   0  0  0  0  0  0  0  0  0  0  0  0
   33.8769   23.4874   34.8976 C   0  0  0  0  0  0  0  0  0  0  0  0
   33.2025   24.1439   36.1184 C   0  0  0  0  0  0  0  0  0  0  0  0
   32.0259   23.3398   36.7009 C   0  0  0  0  0  0  0  0  0  0  0  0
   30.9818   23.2428   35.7376 O   0  0  0  0  0  0  0  0  0  0  0  0
   29.8644   22.4853   36.0440 C   0  0  0  0  0  0  0  0  0  0  0  0
   27.5343   20.9672   36.6267 C   0  0  0  0  0  0  0  0  0  0  0  0
   28.5768   21.0528   37.5592 C   0  0  0  0  0  0  0  0  0  0  0  0
   29.7289   21.7995   37.2725 C   0  0  0  0  0  0  0  0  0  0  0  0
   34.1347   17.5709   35.4254 H   0  0  0  0  0  0  0  0  0  0  0  0
   31.6579   16.7440   34.2741 Cl  0  0  0  0  0  0  0  0  0  0  0  0
   30.7395   19.3266   33.4335 H   0  0  0  0  0  0  0  0  0  0  0  0
   31.6968   21.5821   33.7610 H   0  0  0  0  0  0  0  0  0  0  0  0
   33.1885   23.5337   34.0527 H   0  0  0  0  0  0  0  0  0  0  0  0
   34.7531   24.0740   34.6042 H   0  0  0  0  0  0  0  0  0  0  0  0
   32.8623   25.1455   35.8519 H   0  0  0  0  0  0  0  0  0  0  0  0
   33.9582   24.2718   36.8945 H   0  0  0  0  0  0  0  0  0  0  0  0
   31.6541   23.8329   37.5990 H   0  0  0  0  0  0  0  0  0  0  0  0
   32.3825   22.3543   36.9982 H   0  0  0  0  0  0  0  0  0  0  0  0
   30.5027   21.8345   38.0172 H   0  0  0  0  0  0  0  0  0  0  0  0
   27.6509   21.6299   35.3869 C   0  0  0  0  0  0  0  0  0  0  0  0
   28.8179   22.3837   35.0976 C   0  0  0  0  0  0  0  0  0  0  0  0
   28.9195   23.0370   33.8452 C   0  0  0  0  0  0  0  0  0  0  0  0
   27.8695   22.9512   32.9120 C   0  0  0  0  0  0  0  0  0  0  0  0
   26.7166   22.1963   33.2049 C   0  0  0  0  0  0  0  0  0  0  0  0
   26.6070   21.5363   34.4454 C   0  0  0  0  0  0  0  0  0  0  0  0
   29.7998   23.6171   33.6024 H   0  0  0  0  0  0  0  0  0  0  0  0
   27.9533   23.4621   31.9608 H   0  0  0  0  0  0  0  0  0  0  0  0
   25.9153   22.1326   32.4817 H   0  0  0  0  0  0  0  0  0  0  0  0
   25.7195   20.9629   34.6662 H   0  0  0  0  0  0  0  0  0  0  0  0
   28.4884   20.5451   38.5037 H   0  0  0  0  0  0  0  0  0  0  0  0
   26.6493   20.3955   36.8611 H   0  0  0  0  0  0  0  0  0  0  0  0
   35.3307   20.1748   35.8111 N   0  0  0  0  0  0  0  0  0  0  0  0
   36.0693   19.6175   36.2505 H   0  0  0  0  0  0  0  0  0  0  0  0
  1  2  2  0  0  0  0
  2  3  1  0  0  0  0
  2  4  1  0  0  0  0
  4 11  2  0  0  0  0
  4 43  1  0  0  0  0
  5  6  1  0  0  0  0
  5 10  2  0  0  0  0
  5 43  1  0  0  0  0
  6  7  2  0  0  0  0
  6 20  1  0  0  0  0
  7  8  1  0  0  0  0
  7 21  1  0  0  0  0
  8  9  2  0  0  0  0
  8 22  1  0  0  0  0
  9 10  1  0  0  0  0
  9 23  1  0  0  0  0
 10 11  1  0  0  0  0
 11 12  1  0  0  0  0
 12 24  1  0  0  0  0
 12 25  1  0  0  0  0
 12 13  1  0  0  0  0
 13 14  1  0  0  0  0
 13 26  1  0  0  0  0
 13 27  1  0  0  0  0
 14 15  1  0  0  0  0
 14 28  1  0  0  0  0
 14 29  1  0  0  0  0
 15 16  1  0  0  0  0
 16 19  2  0  0  0  0
 16 32  1  0  0  0  0
 17 18  2  0  0  0  0
 17 31  1  0  0  0  0
 17 42  1  0  0  0  0
 18 19  1  0  0  0  0
 18 41  1  0  0  0  0
 19 30  1  0  0  0  0
 31 32  2  0  0  0  0
 31 36  1  0  0  0  0
 32 33  1  0  0  0  0
 33 34  2  0  0  0  0
 33 37  1  0  0  0  0
 34 35  1  0  0  0  0
 34 38  1  0  0  0  0
 35 36  2  0  0  0  0
 35 39  1  0  0  0  0
 36 40  1  0  0  0  0
 43 44  1  0  0  0  0
M  END
>  <r_user_dG.exp>
-9.779976

$$$$
44
  PyMOL2.3          3D                             0

 44 47  0  0  0  0  0  0  0  0999 V2000
   36.6148   23.6108   36.1753 O   0  0  0  0  0  0  0  0  0  0  0  0
   36.4741   22.3960   36.4257 C   0  0  0  0  0  0  0  0  0  0  0  0
   37.1846   21.8115   37.2772 O   0  5  0  0  0  0  0  0  0  0  0  0
   35.4291   21.6330   35.7106 C   0  0  0  0  0  0  0  0  0  0  0  0
   34.3424   19.6796   35.2286 C   0  0  0  0  0  0  0  0  0  0  0  0
   33.8752   18.3551   35.1367 C   0  0  0  0  0  0  0  0  0  0  0  0
   32.7836   18.0617   34.2999 C   0  0  0  0  0  0  0  0  0  0  0  0
   32.1714   19.0942   33.5631 C   0  0  0  0  0  0  0  0  0  0  0  0
   32.6441   20.4192   33.6623 C   0  0  0  0  0  0  0  0  0  0  0  0
   33.7391   20.7421   34.4976 C   0  0  0  0  0  0  0  0  0  0  0  0
   34.4266   21.9701   34.8269 C   0  0  0  0  0  0  0  0  0  0  0  0
   34.0739   23.3454   34.3157 C   0  0  0  0  0  0  0  0  0  0  0  0
   33.4358   24.2563   35.3872 C   0  0  0  0  0  0  0  0  0  0  0  0
   32.2793   23.6150   36.1617 C   0  0  0  0  0  0  0  0  0  0  0  0
   31.1667   23.4444   35.2948 O   0  0  0  0  0  0  0  0  0  0  0  0
   30.0123   22.9086   35.8249 C   0  0  0  0  0  0  0  0  0  0  0  0
   27.5803   21.8537   36.8474 C   0  0  0  0  0  0  0  0  0  0  0  0
   28.7929   21.6313   37.5213 C   0  0  0  0  0  0  0  0  0  0  0  0
   29.9981   22.1552   37.0227 C   0  0  0  0  0  0  0  0  0  0  0  0
   34.3503   17.5732   35.7012 H   0  0  0  0  0  0  0  0  0  0  0  0
   32.4137   17.0502   34.2222 H   0  0  0  0  0  0  0  0  0  0  0  0
   31.3289   18.8774   32.9223 H   0  0  0  0  0  0  0  0  0  0  0  0
   32.1687   21.2056   33.0947 H   0  0  0  0  0  0  0  0  0  0  0  0
   33.3793   23.2513   33.4793 H   0  0  0  0  0  0  0  0  0  0  0  0
   34.9637   23.8297   33.9030 H   0  0  0  0  0  0  0  0  0  0  0  0
   33.1051   25.1847   34.9231 H   0  0  0  0  0  0  0  0  0  0  0  0
   34.2041   24.5415   36.1048 H   0  0  0  0  0  0  0  0  0  0  0  0
   31.9871   24.2707   36.9842 H   0  0  0  0  0  0  0  0  0  0  0  0
   32.6070   22.6755   36.6017 H   0  0  0  0  0  0  0  0  0  0  0  0
   30.8984   21.9510   37.5717 H   0  0  0  0  0  0  0  0  0  0  0  0
   27.5712   22.6014   35.6439 C   0  0  0  0  0  0  0  0  0  0  0  0
   28.7916   23.1225   35.1316 C   0  0  0  0  0  0  0  0  0  0  0  0
   28.7811   23.8641   33.9316 C   0  0  0  0  0  0  0  0  0  0  0  0
   27.5795   24.0843   33.2376 C   0  0  0  0  0  0  0  0  0  0  0  0
   26.3706   23.5687   33.7382 C   0  0  0  0  0  0  0  0  0  0  0  0
   26.3652   22.8317   34.9382 C   0  0  0  0  0  0  0  0  0  0  0  0
   29.6944   24.2695   33.5257 H   0  0  0  0  0  0  0  0  0  0  0  0
   27.5842   24.6469   32.3162 H   0  0  0  0  0  0  0  0  0  0  0  0
   25.4506   23.7397   33.2044 H   0  0  0  0  0  0  0  0  0  0  0  0
   25.4276   22.4518   35.3092 H   0  0  0  0  0  0  0  0  0  0  0  0
   28.7983   21.0649   38.4397 H   0  0  0  0  0  0  0  0  0  0  0  0
   26.1290   21.1966   37.5268 Cl  0  0  0  0  0  0  0  0  0  0  0  0
   35.3605   20.2686   35.9496 N   0  0  0  0  0  0  0  0  0  0  0  0
   35.9975   19.8265   36.5934 H   0  0  0  0  0  0  0  0  0  0  0  0
  1  2  2  0  0  0  0
  2  3  1  0  0  0  0
  2  4  1  0  0  0  0
  4 11  2  0  0  0  0
  4 43  1  0  0  0  0
  5  6  1  0  0  0  0
  5 10  2  0  0  0  0
  5 43  1  0  0  0  0
  6  7  2  0  0  0  0
  6 20  1  0  0  0  0
  7  8  1  0  0  0  0
  7 21  1  0  0  0  0
  8  9  2  0  0  0  0
  8 22  1  0  0  0  0
  9 10  1  0  0  0  0
  9 23  1  0  0  0  0
 10 11  1  0  0  0  0
 11 12  1  0  0  0  0
 12 24  1  0  0  0  0
 12 25  1  0  0  0  0
 12 13  1  0  0  0  0
 13 14  1  0  0  0  0
 13 26  1  0  0  0  0
 13 27  1  0  0  0  0
 14 15  1  0  0  0  0
 14 28  1  0  0  0  0
 14 29  1  0  0  0  0
 15 16  1  0  0  0  0
 16 19  2  0  0  0  0
 16 32  1  0  0  0  0
 17 18  2  0  0  0  0
 17 31  1  0  0  0  0
 17 42  1  0  0  0  0
 18 19  1  0  0  0  0
 18 41  1  0  0  0  0
 19 30  1  0  0  0  0
 31 32  2  0  0  0  0
 31 36  1  0  0  0  0
 32 33  1  0  0  0  0
 33 34  2  0  0  0  0
 33 37  1  0  0  0  0
 34 35  1  0  0  0  0
 34 38  1  0  0  0  0
 35 36  2  0  0  0  0
 35 39  1  0  0  0  0
 36 40  1  0  0  0  0
 43 44  1  0  0  0  0
M  END
>  <r_user_dG.exp>
-8.673381

$$$$
23
  PyMOL2.3          3D                             0

 43 46  0  0  0  0  0  0  0  0999 V2000
   37.5372   22.0956   36.9458 O   0  0  0  0  0  0  0  0  0  0  0  0
   36.5537   22.5917   36.3486 C   0  0  0  0  0  0  0  0  0  0  0  0
   36.4355   23.8332   36.2269 O   0  5  0  0  0  0  0  0  0  0  0  0
   35.4981   21.6952   35.7868 C   0  0  0  0  0  0  0  0  0  0  0  0
   35.8174   19.9803   35.9504 S   0  0  0  0  0  0  0  0  0  0  0  0
   34.2962   19.5663   35.1761 C   0  0  0  0  0  0  0  0  0  0  0  0
   33.7772   18.2861   34.9404 C   0  0  0  0  0  0  0  0  0  0  0  0
   32.5330   18.1300   34.3014 C   0  0  0  0  0  0  0  0  0  0  0  0
   31.8149   19.2731   33.9020 C   0  0  0  0  0  0  0  0  0  0  0  0
   32.3456   20.5546   34.1433 C   0  0  0  0  0  0  0  0  0  0  0  0
   33.5872   20.7454   34.7898 C   0  0  0  0  0  0  0  0  0  0  0  0
   34.2908   21.9638   35.1581 C   0  0  0  0  0  0  0  0  0  0  0  0
   33.7299   23.3401   34.8791 C   0  0  0  0  0  0  0  0  0  0  0  0
   33.0038   23.9638   36.0901 C   0  0  0  0  0  0  0  0  0  0  0  0
   31.8169   23.1542   36.6499 C   0  0  0  0  0  0  0  0  0  0  0  0
   30.7732   23.0552   35.6880 O   0  0  0  0  0  0  0  0  0  0  0  0
   29.5867   22.4357   36.0410 C   0  0  0  0  0  0  0  0  0  0  0  0
   27.0952   21.2270   36.6839 C   0  0  0  0  0  0  0  0  0  0  0  0
   28.1370   21.2404   37.6283 C   0  0  0  0  0  0  0  0  0  0  0  0
   29.3720   21.8430   37.3136 C   0  0  0  0  0  0  0  0  0  0  0  0
   34.3346   17.4124   35.2494 H   0  0  0  0  0  0  0  0  0  0  0  0
   32.1239   17.1483   34.1247 H   0  0  0  0  0  0  0  0  0  0  0  0
   30.8592   19.1730   33.4112 H   0  0  0  0  0  0  0  0  0  0  0  0
   31.7755   21.4156   33.8328 H   0  0  0  0  0  0  0  0  0  0  0  0
   33.0448   23.3002   34.0356 H   0  0  0  0  0  0  0  0  0  0  0  0
   34.5296   24.0187   34.5571 H   0  0  0  0  0  0  0  0  0  0  0  0
   32.6517   24.9605   35.8142 H   0  0  0  0  0  0  0  0  0  0  0  0
   33.7273   24.1070   36.8926 H   0  0  0  0  0  0  0  0  0  0  0  0
   31.4414   23.6784   37.5261 H   0  0  0  0  0  0  0  0  0  0  0  0
   32.1440   22.1663   36.9742 H   0  0  0  0  0  0  0  0  0  0  0  0
   30.1322   21.8286   38.0869 H   0  0  0  0  0  0  0  0  0  0  0  0
   27.2944   21.8024   35.4167 C   0  0  0  0  0  0  0  0  0  0  0  0
   28.5371   22.3932   35.0930 C   0  0  0  0  0  0  0  0  0  0  0  0
   28.7266   22.9404   33.8117 C   0  0  0  0  0  0  0  0  0  0  0  0
   27.6859   22.9093   32.8585 C   0  0  0  0  0  0  0  0  0  0  0  0
   26.4435   22.3343   33.1884 C   0  0  0  0  0  0  0  0  0  0  0  0
   26.2516   21.7831   34.4748 C   0  0  0  0  0  0  0  0  0  0  0  0
   29.6682   23.3944   33.5200 H   0  0  0  0  0  0  0  0  0  0  0  0
   27.8381   23.3287   31.8696 H   0  0  0  0  0  0  0  0  0  0  0  0
   25.6454   22.3144   32.4624 H   0  0  0  0  0  0  0  0  0  0  0  0
   25.2896   21.3455   34.7175 H   0  0  0  0  0  0  0  0  0  0  0  0
   27.9985   20.7918   38.5989 H   0  0  0  0  0  0  0  0  0  0  0  0
   26.1534   20.7635   36.9486 H   0  0  0  0  0  0  0  0  0  0  0  0
  1  2  2  0  0  0  0
  2  3  1  0  0  0  0
  2  4  1  0  0  0  0
  4  5  1  0  0  0  0
  4 12  2  0  0  0  0
  5  6  1  0  0  0  0
  6  7  1  0  0  0  0
  6 11  2  0  0  0  0
  7  8  2  0  0  0  0
  7 21  1  0  0  0  0
  8  9  1  0  0  0  0
  8 22  1  0  0  0  0
  9 10  2  0  0  0  0
  9 23  1  0  0  0  0
 10 11  1  0  0  0  0
 10 24  1  0  0  0  0
 11 12  1  0  0  0  0
 12 13  1  0  0  0  0
 13 25  1  0  0  0  0
 13 26  1  0  0  0  0
 13 14  1  0  0  0  0
 14 15  1  0  0  0  0
 14 27  1  0  0  0  0
 14 28  1  0  0  0  0
 15 16  1  0  0  0  0
 15 29  1  0  0  0  0
 15 30  1  0  0  0  0
 16 17  1  0  0  0  0
 17 20  2  0  0  0  0
 17 33  1  0  0  0  0
 18 19  2  0  0  0  0
 18 32  1  0  0  0  0
 18 43  1  0  0  0  0
 19 20  1  0  0  0  0
 19 42  1  0  0  0  0
 20 31  1  0  0  0  0
 32 33  2  0  0  0  0
 32 37  1  0  0  0  0
 33 34  1  0  0  0  0
 34 35  2  0  0  0  0
 34 38  1  0  0  0  0
 35 36  1  0  0  0  0
 35 39  1  0  0  0  0
 36 37  2  0  0  0  0
 36 40  1  0  0  0  0
 37 41  1  0  0  0  0
M  END
>  <r_user_dG.exp>
-8.828544

$$$$
29
  PyMOL2.3          3D                             0

 41 43  0  0  0  0  0  0  0  0999 V2000
   36.3531   23.8653   36.1183 O   0  0  0  0  0  0  0  0  0  0  0  0
   36.3832   22.6460   36.4277 C   0  0  0  0  0  0  0  0  0  0  0  0
   37.2168   22.1978   37.2429 O   0  5  0  0  0  0  0  0  0  0  0  0
   35.4251   21.7007   35.8003 C   0  0  0  0  0  0  0  0  0  0  0  0
   34.6281   19.6061   35.3799 C   0  0  0  0  0  0  0  0  0  0  0  0
   34.3580   18.2233   35.2953 C   0  0  0  0  0  0  0  0  0  0  0  0
   33.2923   17.7654   34.4931 C   0  0  0  0  0  0  0  0  0  0  0  0
   32.4937   18.6942   33.7966 C   0  0  0  0  0  0  0  0  0  0  0  0
   32.7553   20.0753   33.8984 C   0  0  0  0  0  0  0  0  0  0  0  0
   33.8262   20.5608   34.6817 C   0  0  0  0  0  0  0  0  0  0  0  0
   34.3454   21.8762   34.9578 C   0  0  0  0  0  0  0  0  0  0  0  0
   33.7889   23.1735   34.4347 C   0  0  0  0  0  0  0  0  0  0  0  0
   32.9113   23.9337   35.4448 C   0  0  0  0  0  0  0  0  0  0  0  0
   31.7611   23.0970   36.0373 C   0  0  0  0  0  0  0  0  0  0  0  0
   31.0275   22.4894   34.9704 O   0  0  0  0  0  0  0  0  0  0  0  0
   29.6682   22.6670   34.9704 C   0  0  0  0  0  0  0  0  0  0  0  0
   28.8160   22.2081   36.0123 C   0  0  0  0  0  0  0  0  0  0  0  0
   27.4325   22.4624   35.9414 C   0  0  0  0  0  0  0  0  0  0  0  0
   26.8826   23.1228   34.8260 C   0  0  0  0  0  0  0  0  0  0  0  0
   27.7185   23.5354   33.7733 C   0  0  0  0  0  0  0  0  0  0  0  0
   29.1071   23.2945   33.8483 C   0  0  0  0  0  0  0  0  0  0  0  0
   34.9727   17.5207   35.8370 H   0  0  0  0  0  0  0  0  0  0  0  0
   33.0900   16.7062   34.4143 H   0  0  0  0  0  0  0  0  0  0  0  0
   31.6690   18.3448   33.1908 H   0  0  0  0  0  0  0  0  0  0  0  0
   32.1267   20.7790   33.3665 H   0  0  0  0  0  0  0  0  0  0  0  0
   33.1964   22.9868   33.5296 H   0  0  0  0  0  0  0  0  0  0  0  0
   34.6043   23.8234   34.1072 H   0  0  0  0  0  0  0  0  0  0  0  0
   32.5032   24.8277   34.9696 H   0  0  0  0  0  0  0  0  0  0  0  0
   33.5355   24.2850   36.2687 H   0  0  0  0  0  0  0  0  0  0  0  0
   31.1377   23.7399   36.6597 H   0  0  0  0  0  0  0  0  0  0  0  0
   32.1813   22.3267   36.6913 H   0  0  0  0  0  0  0  0  0  0  0  0
   29.7379   23.5945   33.0274 H   0  0  0  0  0  0  0  0  0  0  0  0
   35.5739   20.3448   36.0524 N   0  0  0  0  0  0  0  0  0  0  0  0
   36.3345   19.9909   36.6461 H   0  0  0  0  0  0  0  0  0  0  0  0
   27.3018   24.0310   32.9043 H   0  0  0  0  0  0  0  0  0  0  0  0
   25.8226   23.3001   34.7598 H   0  0  0  0  0  0  0  0  0  0  0  0
   26.7743   22.1386   36.7313 H   0  0  0  0  0  0  0  0  0  0  0  0
   29.8852   22.2829   38.0674 F   0  0  0  0  0  0  0  0  0  0  0  0
   29.3679   21.4289   37.1962 C   0  0  0  0  0  0  0  0  0  0  0  0
   28.4226   20.7319   37.8342 F   0  0  0  0  0  0  0  0  0  0  0  0
   30.3141   20.5689   36.8164 F   0  0  0  0  0  0  0  0  0  0  0  0
  1  2  2  0  0  0  0
  2  3  1  0  0  0  0
  2  4  1  0  0  0  0
  4 11  2  0  0  0  0
  4 33  1  0  0  0  0
  5  6  1  0  0  0  0
  5 10  2  0  0  0  0
  5 33  1  0  0  0  0
  6  7  2  0  0  0  0
  6 22  1  0  0  0  0
  7  8  1  0  0  0  0
  7 23  1  0  0  0  0
  8  9  2  0  0  0  0
  8 24  1  0  0  0  0
  9 10  1  0  0  0  0
  9 25  1  0  0  0  0
 10 11  1  0  0  0  0
 11 12  1  0  0  0  0
 12 26  1  0  0  0  0
 12 27  1  0  0  0  0
 12 13  1  0  0  0  0
 13 14  1  0  0  0  0
 13 28  1  0  0  0  0
 13 29  1  0  0  0  0
 14 15  1  0  0  0  0
 14 30  1  0  0  0  0
 14 31  1  0  0  0  0
 15 16  1  0  0  0  0
 16 17  1  0  0  0  0
 16 21  2  0  0  0  0
 17 18  2  0  0  0  0
 17 39  1  0  0  0  0
 18 19  1  0  0  0  0
 18 37  1  0  0  0  0
 19 20  2  0  0  0  0
 19 36  1  0  0  0  0
 20 21  1  0  0  0  0
 20 35  1  0  0  0  0
 21 32  1  0  0  0  0
 33 34  1  0  0  0  0
 38 39  1  0  0  0  0
 39 40  1  0  0  0  0
 39 41  1  0  0  0  0
M  END
>  <r_user_dG.exp>
-6.939406

$$$$
40
  PyMOL2.3          3D                             0

 49 52  0  0  0  0  0  0  0  0999 V2000
   38.0176   21.9219   36.0570 O   0  0  0  0  0  0  0  0  0  0  0  0
   36.8402   22.3216   36.1675 C   0  0  0  0  0  0  0  0  0  0  0  0
   36.5615   23.4246   36.6812 O   0  5  0  0  0  0  0  0  0  0  0  0
   35.7394   21.4531   35.6875 C   0  0  0  0  0  0  0  0  0  0  0  0
   34.9230   19.4857   34.8535 C   0  0  0  0  0  0  0  0  0  0  0  0
   34.7346   18.1806   34.3483 C   0  0  0  0  0  0  0  0  0  0  0  0
   33.4338   17.7192   34.0788 C   0  0  0  0  0  0  0  0  0  0  0  0
   32.3391   18.5695   34.3117 C   0  0  0  0  0  0  0  0  0  0  0  0
   32.5370   19.8710   34.8141 C   0  0  0  0  0  0  0  0  0  0  0  0
   33.8324   20.3651   35.1017 C   0  0  0  0  0  0  0  0  0  0  0  0
   34.3693   21.6183   35.5988 C   0  0  0  0  0  0  0  0  0  0  0  0
   33.5949   22.8569   35.9726 C   0  0  0  0  0  0  0  0  0  0  0  0
   32.5115   23.2481   34.9476 C   0  0  0  0  0  0  0  0  0  0  0  0
   31.1307   23.4653   35.5697 C   0  0  0  0  0  0  0  0  0  0  0  0
   30.7943   22.3138   36.3357 O   0  0  0  0  0  0  0  0  0  0  0  0
   29.4922   22.1252   36.7400 C   0  0  0  0  0  0  0  0  0  0  0  0
   28.4069   22.9176   36.3052 C   0  0  0  0  0  0  0  0  0  0  0  0
   27.0898   22.6256   36.7084 C   0  0  0  0  0  0  0  0  0  0  0  0
   26.8462   21.5368   37.5772 C   0  0  0  0  0  0  0  0  0  0  0  0
   27.9263   20.7600   38.0322 C   0  0  0  0  0  0  0  0  0  0  0  0
   29.2383   21.0481   37.6101 C   0  0  0  0  0  0  0  0  0  0  0  0
   35.5863   17.5425   34.1699 H   0  0  0  0  0  0  0  0  0  0  0  0
   33.2688   16.7200   33.6983 H   0  0  0  0  0  0  0  0  0  0  0  0
   31.3312   18.2263   34.1068 H   0  0  0  0  0  0  0  0  0  0  0  0
   31.6745   20.4984   34.9658 H   0  0  0  0  0  0  0  0  0  0  0  0
   34.2539   23.7214   36.0740 H   0  0  0  0  0  0  0  0  0  0  0  0
   33.1811   22.7274   36.9764 H   0  0  0  0  0  0  0  0  0  0  0  0
   32.4178   22.4872   34.1676 H   0  0  0  0  0  0  0  0  0  0  0  0
   32.8246   24.1461   34.4208 H   0  0  0  0  0  0  0  0  0  0  0  0
   30.4328   23.6287   34.7501 H   0  0  0  0  0  0  0  0  0  0  0  0
   31.1085   24.3454   36.2151 H   0  0  0  0  0  0  0  0  0  0  0  0
   28.5498   23.7166   35.6057 H   0  0  0  0  0  0  0  0  0  0  0  0
   30.0630   20.4397   37.9459 H   0  0  0  0  0  0  0  0  0  0  0  0
   36.0570   20.1902   35.2101 N   0  0  0  0  0  0  0  0  0  0  0  0
   37.0209   19.8794   35.1641 H   0  0  0  0  0  0  0  0  0  0  0  0
   27.7457   19.9154   38.6902 H   0  0  0  0  0  0  0  0  0  0  0  0
   25.8363   21.2907   37.8754 H   0  0  0  0  0  0  0  0  0  0  0  0
   26.0416   23.3196   36.1727 O   0  0  0  0  0  0  0  0  0  0  0  0
   25.6364   22.0314   32.2356 C   0  0  0  0  0  0  0  0  0  0  0  0
   24.9649   21.3531   33.2782 C   0  0  0  0  0  0  0  0  0  0  0  0
   25.0472   21.8205   34.5922 C   0  0  0  0  0  0  0  0  0  0  0  0
   25.8056   22.9721   34.8735 C   0  0  0  0  0  0  0  0  0  0  0  0
   26.4078   23.6971   33.8248 C   0  0  0  0  0  0  0  0  0  0  0  0
   26.3351   23.2198   32.5064 C   0  0  0  0  0  0  0  0  0  0  0  0
   25.6393   21.6431   31.2288 H   0  0  0  0  0  0  0  0  0  0  0  0
   24.4128   20.4492   33.0630 H   0  0  0  0  0  0  0  0  0  0  0  0
   24.5762   21.2718   35.4025 H   0  0  0  0  0  0  0  0  0  0  0  0
   26.9884   24.5878   34.0332 H   0  0  0  0  0  0  0  0  0  0  0  0
   26.8321   23.7475   31.7075 H   0  0  0  0  0  0  0  0  0  0  0  0
  1  2  2  0  0  0  0
  2  3  1  0  0  0  0
  2  4  1  0  0  0  0
  4 11  2  0  0  0  0
  4 34  1  0  0  0  0
  5  6  1  0  0  0  0
  5 10  2  0  0  0  0
  5 34  1  0  0  0  0
  6  7  2  0  0  0  0
  6 22  1  0  0  0  0
  7  8  1  0  0  0  0
  7 23  1  0  0  0  0
  8  9  2  0  0  0  0
  8 24  1  0  0  0  0
  9 10  1  0  0  0  0
  9 25  1  0  0  0  0
 10 11  1  0  0  0  0
 11 12  1  0  0  0  0
 12 26  1  0  0  0  0
 12 27  1  0  0  0  0
 12 13  1  0  0  0  0
 13 14  1  0  0  0  0
 13 28  1  0  0  0  0
 13 29  1  0  0  0  0
 14 15  1  0  0  0  0
 14 30  1  0  0  0  0
 14 31  1  0  0  0  0
 15 16  1  0  0  0  0
 16 17  1  0  0  0  0
 16 21  2  0  0  0  0
 17 18  2  0  0  0  0
 17 32  1  0  0  0  0
 18 19  1  0  0  0  0
 18 38  1  0  0  0  0
 19 20  2  0  0  0  0
 19 37  1  0  0  0  0
 20 21  1  0  0  0  0
 20 36  1  0  0  0  0
 21 33  1  0  0  0  0
 34 35  1  0  0  0  0
 38 42  1  0  0  0  0
 39 40  2  0  0  0  0
 39 44  1  0  0  0  0
 39 45  1  0  0  0  0
 40 41  1  0  0  0  0
 40 46  1  0  0  0  0
 41 42  2  0  0  0  0
 41 47  1  0  0  0  0
 42 43  1  0  0  0  0
 43 44  2  0  0  0  0
 43 48  1  0  0  0  0
 44 49  1  0  0  0  0
M  END
>  <r_user_dG.exp>
-7.253025

$$$$
62
  PyMOL2.3          3D                             0

 43 46  0  0  0  0  0  0  0  0999 V2000
   36.6041   23.8998   35.6498 O   0  0  0  0  0  0  0  0  0  0  0  0
   36.5307   22.8086   36.2612 C   0  0  0  0  0  0  0  0  0  0  0  0
   37.2063   22.6287   37.3000 O   0  5  0  0  0  0  0  0  0  0  0  0
   35.6157   21.7461   35.7518 C   0  0  0  0  0  0  0  0  0  0  0  0
   36.0657   20.1225   36.2175 S   0  0  0  0  0  0  0  0  0  0  0  0
   34.6360   19.4478   35.4480 C   0  0  0  0  0  0  0  0  0  0  0  0
   34.2757   18.0927   35.4399 C   0  0  0  0  0  0  0  0  0  0  0  0
   33.0917   17.6757   34.8009 C   0  0  0  0  0  0  0  0  0  0  0  0
   32.2816   18.6444   34.1846 C   0  0  0  0  0  0  0  0  0  0  0  0
   32.6301   20.0114   34.2078 C   0  0  0  0  0  0  0  0  0  0  0  0
   33.8367   20.4619   34.8275 C   0  0  0  0  0  0  0  0  0  0  0  0
   34.4365   21.7989   35.0249 C   0  0  0  0  0  0  0  0  0  0  0  0
   33.7635   23.0975   34.6484 C   0  0  0  0  0  0  0  0  0  0  0  0
   32.9012   23.5568   35.8366 C   0  0  0  0  0  0  0  0  0  0  0  0
   31.7537   24.4987   35.4835 C   0  0  0  0  0  0  0  0  0  0  0  0
   30.7244   23.8112   34.7794 O   0  0  0  0  0  0  0  0  0  0  0  0
   29.7013   23.2358   35.5045 C   0  0  0  0  0  0  0  0  0  0  0  0
   27.5464   21.9661   36.8236 C   0  0  0  0  0  0  0  0  0  0  0  0
   28.8303   22.0207   37.4284 C   0  0  0  0  0  0  0  0  0  0  0  0
   29.8636   22.7167   36.8002 C   0  0  0  0  0  0  0  0  0  0  0  0
   34.9114   17.3648   35.9250 H   0  0  0  0  0  0  0  0  0  0  0  0
   32.8195   16.6331   34.7805 H   0  0  0  0  0  0  0  0  0  0  0  0
   31.3757   18.3287   33.6909 H   0  0  0  0  0  0  0  0  0  0  0  0
   31.5057   21.1088   33.4709 Cl  0  0  0  0  0  0  0  0  0  0  0  0
   33.1720   22.9999   33.7387 H   0  0  0  0  0  0  0  0  0  0  0  0
   34.4995   23.8605   34.3810 H   0  0  0  0  0  0  0  0  0  0  0  0
   33.5571   24.0131   36.5723 H   0  0  0  0  0  0  0  0  0  0  0  0
   32.4891   22.6826   36.3102 H   0  0  0  0  0  0  0  0  0  0  0  0
   32.1187   25.3107   34.8384 H   0  0  0  0  0  0  0  0  0  0  0  0
   31.3600   24.9851   36.3811 H   0  0  0  0  0  0  0  0  0  0  0  0
   30.7981   22.8088   37.3175 H   0  0  0  0  0  0  0  0  0  0  0  0
   27.3330   22.5585   35.5705 C   0  0  0  0  0  0  0  0  0  0  0  0
   28.4082   23.1772   34.8972 C   0  0  0  0  0  0  0  0  0  0  0  0
   28.1777   23.7541   33.6298 C   0  0  0  0  0  0  0  0  0  0  0  0
   26.8960   23.7318   33.0403 C   0  0  0  0  0  0  0  0  0  0  0  0
   25.8238   23.1191   33.7204 C   0  0  0  0  0  0  0  0  0  0  0  0
   26.0453   22.5309   34.9839 C   0  0  0  0  0  0  0  0  0  0  0  0
   28.9788   24.2466   33.0867 H   0  0  0  0  0  0  0  0  0  0  0  0
   26.7376   24.1947   32.0730 H   0  0  0  0  0  0  0  0  0  0  0  0
   24.8423   23.1135   33.2779 H   0  0  0  0  0  0  0  0  0  0  0  0
   25.2187   22.0675   35.4914 H   0  0  0  0  0  0  0  0  0  0  0  0
   28.9563   21.5711   38.4139 H   0  0  0  0  0  0  0  0  0  0  0  0
   26.7274   21.4644   37.3354 H   0  0  0  0  0  0  0  0  0  0  0  0
  1  2  2  0  0  0  0
  2  3  1  0  0  0  0
  2  4  1  0  0  0  0
  4  5  1  0  0  0  0
  4 12  2  0  0  0  0
  5  6  1  0  0  0  0
  6  7  1  0  0  0  0
  6 11  2  0  0  0  0
  7  8  2  0  0  0  0
  7 21  1  0  0  0  0
  8  9  1  0  0  0  0
  8 22  1  0  0  0  0
  9 10  2  0  0  0  0
  9 23  1  0  0  0  0
 10 11  1  0  0  0  0
 10 24  1  0  0  0  0
 11 12  1  0  0  0  0
 12 13  1  0  0  0  0
 13 25  1  0  0  0  0
 13 26  1  0  0  0  0
 13 14  1  0  0  0  0
 14 15  1  0  0  0  0
 14 27  1  0  0  0  0
 14 28  1  0  0  0  0
 15 16  1  0  0  0  0
 15 29  1  0  0  0  0
 15 30  1  0  0  0  0
 16 17  1  0  0  0  0
 17 20  2  0  0  0  0
 17 33  1  0  0  0  0
 18 19  2  0  0  0  0
 18 32  1  0  0  0  0
 18 43  1  0  0  0  0
 19 20  1  0  0  0  0
 19 42  1  0  0  0  0
 20 31  1  0  0  0  0
 32 33  2  0  0  0  0
 32 37  1  0  0  0  0
 33 34  1  0  0  0  0
 34 35  2  0  0  0  0
 34 38  1  0  0  0  0
 35 36  1  0  0  0  0
 35 39  1  0  0  0  0
 36 37  2  0  0  0  0
 36 40  1  0  0  0  0
 37 41  1  0  0  0  0
M  END
>  <r_user_dG.exp>
-7.955657

$$$$
61
  PyMOL2.3          3D                             0

 43 45  0  0  0  0  0  0  0  0999 V2000
   37.4825   22.1504   36.7906 O   0  0  0  0  0  0  0  0  0  0  0  0
   36.3240   22.4888   36.4944 C   0  0  0  0  0  0  0  0  0  0  0  0
   35.9605   23.6869   36.6453 O   0  5  0  0  0  0  0  0  0  0  0  0
   35.3644   21.4694   35.9545 C   0  0  0  0  0  0  0  0  0  0  0  0
   35.9872   19.8360   35.9858 S   0  0  0  0  0  0  0  0  0  0  0  0
   34.5094   19.1834   35.2977 C   0  0  0  0  0  0  0  0  0  0  0  0
   34.2529   17.8335   35.0316 C   0  0  0  0  0  0  0  0  0  0  0  0
   33.0415   17.4468   34.4589 C   0  0  0  0  0  0  0  0  0  0  0  0
   32.0856   18.4360   34.1561 C   0  0  0  0  0  0  0  0  0  0  0  0
   32.3405   19.7937   34.4238 C   0  0  0  0  0  0  0  0  0  0  0  0
   33.5639   20.2279   35.0226 C   0  0  0  0  0  0  0  0  0  0  0  0
   34.0821   21.5377   35.4322 C   0  0  0  0  0  0  0  0  0  0  0  0
   33.3063   22.8342   35.2932 C   0  0  0  0  0  0  0  0  0  0  0  0
   32.2686   23.0028   36.4091 C   0  0  0  0  0  0  0  0  0  0  0  0
   31.3411   24.2002   36.1399 C   0  0  0  0  0  0  0  0  0  0  0  0
   30.6034   23.9985   34.9389 O   0  0  0  0  0  0  0  0  0  0  0  0
   29.3096   23.5165   34.9680 C   0  0  0  0  0  0  0  0  0  0  0  0
   28.6935   22.9084   36.0842 C   0  0  0  0  0  0  0  0  0  0  0  0
   27.3584   22.4512   35.9974 C   0  0  0  0  0  0  0  0  0  0  0  0
   26.7187   21.7946   37.2170 C   0  0  0  0  0  0  0  0  0  0  0  0
   26.6370   22.5918   34.7990 C   0  0  0  0  0  0  0  0  0  0  0  0
   24.9924   22.0380   34.6962 Cl  0  0  0  0  0  0  0  0  0  0  0  0
   27.2499   23.1765   33.6775 C   0  0  0  0  0  0  0  0  0  0  0  0
   26.5081   23.3294   32.3512 C   0  0  0  0  0  0  0  0  0  0  0  0
   28.5769   23.6352   33.7787 C   0  0  0  0  0  0  0  0  0  0  0  0
   35.0041   17.0779   35.2582 H   0  0  0  0  0  0  0  0  0  0  0  0
   32.8291   16.4111   34.2461 H   0  0  0  0  0  0  0  0  0  0  0  0
   31.1483   18.1432   33.7004 H   0  0  0  0  0  0  0  0  0  0  0  0
   31.0924   20.9218   33.9743 Cl  0  0  0  0  0  0  0  0  0  0  0  0
   32.8265   22.8620   34.3262 H   0  0  0  0  0  0  0  0  0  0  0  0
   33.9863   23.6927   35.2659 H   0  0  0  0  0  0  0  0  0  0  0  0
   32.7804   23.1291   37.3678 H   0  0  0  0  0  0  0  0  0  0  0  0
   31.6684   22.0989   36.5046 H   0  0  0  0  0  0  0  0  0  0  0  0
   31.9529   25.0882   36.0136 H   0  0  0  0  0  0  0  0  0  0  0  0
   30.6976   24.4086   36.9857 H   0  0  0  0  0  0  0  0  0  0  0  0
   29.2371   22.7666   37.0071 H   0  0  0  0  0  0  0  0  0  0  0  0
   25.7361   22.2249   37.4306 H   0  0  0  0  0  0  0  0  0  0  0  0
   26.5960   20.7254   37.0415 H   0  0  0  0  0  0  0  0  0  0  0  0
   27.3368   21.9215   38.1048 H   0  0  0  0  0  0  0  0  0  0  0  0
   27.1283   23.8362   31.6083 H   0  0  0  0  0  0  0  0  0  0  0  0
   26.2379   22.3517   31.9491 H   0  0  0  0  0  0  0  0  0  0  0  0
   25.5983   23.9173   32.4805 H   0  0  0  0  0  0  0  0  0  0  0  0
   29.0497   24.0897   32.9129 H   0  0  0  0  0  0  0  0  0  0  0  0
  1  2  2  0  0  0  0
  2  3  1  0  0  0  0
  2  4  1  0  0  0  0
  4  5  1  0  0  0  0
  4 12  2  0  0  0  0
  5  6  1  0  0  0  0
  6  7  1  0  0  0  0
  6 11  2  0  0  0  0
  7  8  2  0  0  0  0
  7 26  1  0  0  0  0
  8  9  1  0  0  0  0
  8 27  1  0  0  0  0
  9 10  2  0  0  0  0
  9 28  1  0  0  0  0
 10 11  1  0  0  0  0
 10 29  1  0  0  0  0
 11 12  1  0  0  0  0
 12 13  1  0  0  0  0
 13 30  1  0  0  0  0
 13 31  1  0  0  0  0
 13 14  1  0  0  0  0
 14 15  1  0  0  0  0
 14 32  1  0  0  0  0
 14 33  1  0  0  0  0
 15 16  1  0  0  0  0
 15 34  1  0  0  0  0
 15 35  1  0  0  0  0
 16 17  1  0  0  0  0
 17 18  1  0  0  0  0
 17 25  2  0  0  0  0
 18 19  2  0  0  0  0
 18 36  1  0  0  0  0
 19 20  1  0  0  0  0
 19 21  1  0  0  0  0
 20 37  1  0  0  0  0
 20 38  1  0  0  0  0
 20 39  1  0  0  0  0
 21 22  1  0  0  0  0
 21 23  2  0  0  0  0
 23 24  1  0  0  0  0
 23 25  1  0  0  0  0
 24 40  1  0  0  0  0
 24 41  1  0  0  0  0
 24 42  1  0  0  0  0
 25 43  1  0  0  0  0
M  END
>  <r_user_dG.exp>
-8.079437

$$$$
49
  PyMOL2.3          3D                             0

 41 43  0  0  0  0  0  0  0  0999 V2000
   37.5404   21.5928   36.9680 O   0  0  0  0  0  0  0  0  0  0  0  0
   36.5524   22.1825   36.4802 C   0  0  0  0  0  0  0  0  0  0  0  0
   36.4527   23.4283   36.5120 O   0  5  0  0  0  0  0  0  0  0  0  0
   35.5003   21.3498   35.8317 C   0  0  0  0  0  0  0  0  0  0  0  0
   34.6772   19.3158   35.2078 C   0  0  0  0  0  0  0  0  0  0  0  0
   34.4363   17.9429   35.0028 C   0  0  0  0  0  0  0  0  0  0  0  0
   33.2608   17.5411   34.3360 C   0  0  0  0  0  0  0  0  0  0  0  0
   32.3650   18.5087   33.8663 C   0  0  0  0  0  0  0  0  0  0  0  0
   32.6038   19.8817   34.0777 C   0  0  0  0  0  0  0  0  0  0  0  0
   33.7667   20.3271   34.7804 C   0  0  0  0  0  0  0  0  0  0  0  0
   34.2947   21.6075   35.2142 C   0  0  0  0  0  0  0  0  0  0  0  0
   33.6193   22.9388   35.0561 C   0  0  0  0  0  0  0  0  0  0  0  0
   32.5434   23.1614   36.1394 C   0  0  0  0  0  0  0  0  0  0  0  0
   31.5382   24.2700   35.7755 C   0  0  0  0  0  0  0  0  0  0  0  0
   30.7166   23.8541   34.6899 O   0  0  0  0  0  0  0  0  0  0  0  0
   29.5394   23.1767   34.9491 C   0  0  0  0  0  0  0  0  0  0  0  0
   29.1772   22.6256   36.2059 C   0  0  0  0  0  0  0  0  0  0  0  0
   27.9633   21.9196   36.3580 C   0  0  0  0  0  0  0  0  0  0  0  0
   27.6186   21.3142   37.7101 C   0  0  0  0  0  0  0  0  0  0  0  0
   27.0974   21.7588   35.2560 C   0  0  0  0  0  0  0  0  0  0  0  0
   25.6370   20.8593   35.3992 Cl  0  0  0  0  0  0  0  0  0  0  0  0
   27.4432   22.3218   34.0154 C   0  0  0  0  0  0  0  0  0  0  0  0
   28.6577   23.0175   33.8643 C   0  0  0  0  0  0  0  0  0  0  0  0
   35.1310   17.2114   35.3806 H   0  0  0  0  0  0  0  0  0  0  0  0
   33.0648   16.4914   34.1918 H   0  0  0  0  0  0  0  0  0  0  0  0
   31.4734   18.1909   33.3483 H   0  0  0  0  0  0  0  0  0  0  0  0
   31.4548   21.0079   33.4660 Cl  0  0  0  0  0  0  0  0  0  0  0  0
   33.1524   23.0072   34.0735 H   0  0  0  0  0  0  0  0  0  0  0  0
   34.3437   23.7480   35.0771 H   0  0  0  0  0  0  0  0  0  0  0  0
   33.0266   23.3732   37.0919 H   0  0  0  0  0  0  0  0  0  0  0  0
   31.9830   22.2388   36.2852 H   0  0  0  0  0  0  0  0  0  0  0  0
   32.0892   25.1588   35.4683 H   0  0  0  0  0  0  0  0  0  0  0  0
   30.9479   24.5688   36.6413 H   0  0  0  0  0  0  0  0  0  0  0  0
   29.8353   22.7318   37.0553 H   0  0  0  0  0  0  0  0  0  0  0  0
   26.6191   21.6096   38.0378 H   0  0  0  0  0  0  0  0  0  0  0  0
   27.6454   20.2231   37.6497 H   0  0  0  0  0  0  0  0  0  0  0  0
   28.3202   21.6275   38.4854 H   0  0  0  0  0  0  0  0  0  0  0  0
   28.9106   23.4315   32.8985 H   0  0  0  0  0  0  0  0  0  0  0  0
   26.7804   22.2049   33.1695 H   0  0  0  0  0  0  0  0  0  0  0  0
   35.7233   19.9852   35.8156 N   0  0  0  0  0  0  0  0  0  0  0  0
   36.5650   19.5859   36.2291 H   0  0  0  0  0  0  0  0  0  0  0  0
  1  2  2  0  0  0  0
  2  3  1  0  0  0  0
  2  4  1  0  0  0  0
  4 11  2  0  0  0  0
  4 40  1  0  0  0  0
  5  6  1  0  0  0  0
  5 10  2  0  0  0  0
  5 40  1  0  0  0  0
  6  7  2  0  0  0  0
  6 24  1  0  0  0  0
  7  8  1  0  0  0  0
  7 25  1  0  0  0  0
  8  9  2  0  0  0  0
  8 26  1  0  0  0  0
  9 10  1  0  0  0  0
  9 27  1  0  0  0  0
 10 11  1  0  0  0  0
 11 12  1  0  0  0  0
 12 28  1  0  0  0  0
 12 29  1  0  0  0  0
 12 13  1  0  0  0  0
 13 14  1  0  0  0  0
 13 30  1  0  0  0  0
 13 31  1  0  0  0  0
 14 15  1  0  0  0  0
 14 32  1  0  0  0  0
 14 33  1  0  0  0  0
 15 16  1  0  0  0  0
 16 17  1  0  0  0  0
 16 23  2  0  0  0  0
 17 18  2  0  0  0  0
 17 34  1  0  0  0  0
 18 19  1  0  0  0  0
 18 20  1  0  0  0  0
 19 35  1  0  0  0  0
 19 36  1  0  0  0  0
 19 37  1  0  0  0  0
 20 21  1  0  0  0  0
 20 22  2  0  0  0  0
 22 23  1  0  0  0  0
 22 39  1  0  0  0  0
 23 38  1  0  0  0  0
 40 41  1  0  0  0  0
M  END
>  <r_user_dG.exp>
-8.361457

$$$$
64
  PyMOL2.3          3D                             0

 43 46  0  0  0  0  0  0  0  0999 V2000
   37.5656   21.6263   37.0314 O   0  0  0  0  0  0  0  0  0  0  0  0
   36.5980   22.2407   36.5173 C   0  0  0  0  0  0  0  0  0  0  0  0
   36.5626   23.4861   36.5426 O   0  5  0  0  0  0  0  0  0  0  0  0
   35.4810   21.4864   35.8868 C   0  0  0  0  0  0  0  0  0  0  0  0
   35.6540   19.7499   35.9602 S   0  0  0  0  0  0  0  0  0  0  0  0
   34.1147   19.5174   35.1634 C   0  0  0  0  0  0  0  0  0  0  0  0
   33.4911   18.2955   34.8583 C   0  0  0  0  0  0  0  0  0  0  0  0
   32.2253   18.2947   34.2407 C   0  0  0  0  0  0  0  0  0  0  0  0
   31.6002   19.5150   33.9180 C   0  0  0  0  0  0  0  0  0  0  0  0
   32.2466   20.7266   34.2124 C   0  0  0  0  0  0  0  0  0  0  0  0
   33.5140   20.7704   34.8463 C   0  0  0  0  0  0  0  0  0  0  0  0
   34.3198   21.9068   35.2630 C   0  0  0  0  0  0  0  0  0  0  0  0
   33.8697   23.3271   35.0474 C   0  0  0  0  0  0  0  0  0  0  0  0
   33.1676   23.9462   36.2745 C   0  0  0  0  0  0  0  0  0  0  0  0
   32.0400   23.0986   36.9007 C   0  0  0  0  0  0  0  0  0  0  0  0
   30.8962   23.0108   36.0466 O   0  0  0  0  0  0  0  0  0  0  0  0
   29.8348   22.2018   36.4248 C   0  0  0  0  0  0  0  0  0  0  0  0
   27.5873   20.5840   37.1112 C   0  0  0  0  0  0  0  0  0  0  0  0
   28.8085   20.4151   37.7785 C   0  0  0  0  0  0  0  0  0  0  0  0
   29.9215   21.2087   37.4383 C   0  0  0  0  0  0  0  0  0  0  0  0
   33.9839   17.3692   35.1126 H   0  0  0  0  0  0  0  0  0  0  0  0
   31.4224   16.8240   33.8881 Cl  0  0  0  0  0  0  0  0  0  0  0  0
   30.6260   19.5137   33.4512 H   0  0  0  0  0  0  0  0  0  0  0  0
   31.7467   21.6477   33.9685 H   0  0  0  0  0  0  0  0  0  0  0  0
   33.1858   23.3724   34.2013 H   0  0  0  0  0  0  0  0  0  0  0  0
   34.7135   23.9516   34.7488 H   0  0  0  0  0  0  0  0  0  0  0  0
   32.8046   24.9440   36.0273 H   0  0  0  0  0  0  0  0  0  0  0  0
   33.9306   24.0841   37.0420 H   0  0  0  0  0  0  0  0  0  0  0  0
   31.7316   23.5586   37.8395 H   0  0  0  0  0  0  0  0  0  0  0  0
   32.4444   22.1179   37.1353 H   0  0  0  0  0  0  0  0  0  0  0  0
   30.8332   20.9980   37.9587 H   0  0  0  0  0  0  0  0  0  0  0  0
   27.4788   21.5424   36.0852 C   0  0  0  0  0  0  0  0  0  0  0  0
   28.5999   22.3491   35.7414 C   0  0  0  0  0  0  0  0  0  0  0  0
   28.4601   23.3008   34.7034 C   0  0  0  0  0  0  0  0  0  0  0  0
   27.2366   23.4445   34.0200 C   0  0  0  0  0  0  0  0  0  0  0  0
   26.1314   22.6387   34.3667 C   0  0  0  0  0  0  0  0  0  0  0  0
   26.2559   21.6909   35.4012 C   0  0  0  0  0  0  0  0  0  0  0  0
   29.2876   23.9296   34.4195 H   0  0  0  0  0  0  0  0  0  0  0  0
   27.1431   24.1713   33.2304 H   0  0  0  0  0  0  0  0  0  0  0  0
   25.1986   22.7476   33.8420 H   0  0  0  0  0  0  0  0  0  0  0  0
   25.4022   21.0809   35.6591 H   0  0  0  0  0  0  0  0  0  0  0  0
   28.9067   19.6609   38.5487 H   0  0  0  0  0  0  0  0  0  0  0  0
   26.7428   19.9633   37.3828 H   0  0  0  0  0  0  0  0  0  0  0  0
  1  2  2  0  0  0  0
  2  3  1  0  0  0  0
  2  4  1  0  0  0  0
  4  5  1  0  0  0  0
  4 12  2  0  0  0  0
  5  6  1  0  0  0  0
  6  7  1  0  0  0  0
  6 11  2  0  0  0  0
  7  8  2  0  0  0  0
  7 21  1  0  0  0  0
  8  9  1  0  0  0  0
  8 22  1  0  0  0  0
  9 10  2  0  0  0  0
  9 23  1  0  0  0  0
 10 11  1  0  0  0  0
 10 24  1  0  0  0  0
 11 12  1  0  0  0  0
 12 13  1  0  0  0  0
 13 25  1  0  0  0  0
 13 26  1  0  0  0  0
 13 14  1  0  0  0  0
 14 15  1  0  0  0  0
 14 27  1  0  0  0  0
 14 28  1  0  0  0  0
 15 16  1  0  0  0  0
 15 29  1  0  0  0  0
 15 30  1  0  0  0  0
 16 17  1  0  0  0  0
 17 20  2  0  0  0  0
 17 33  1  0  0  0  0
 18 19  2  0  0  0  0
 18 32  1  0  0  0  0
 18 43  1  0  0  0  0
 19 20  1  0  0  0  0
 19 42  1  0  0  0  0
 20 31  1  0  0  0  0
 32 33  2  0  0  0  0
 32 37  1  0  0  0  0
 33 34  1  0  0  0  0
 34 35  2  0  0  0  0
 34 38  1  0  0  0  0
 35 36  1  0  0  0  0
 35 39  1  0  0  0  0
 36 37  2  0  0  0  0
 36 40  1  0  0  0  0
 37 41  1  0  0  0  0
M  END
>  <r_user_dG.exp>
-9.499793

$$$$
41
  PyMOL2.3          3D                             0

 49 52  0  0  0  0  0  0  0  0999 V2000
   37.4127   21.5643   36.9453 O   0  0  0  0  0  0  0  0  0  0  0  0
   36.4909   22.2503   36.4483 C   0  0  0  0  0  0  0  0  0  0  0  0
   36.4965   23.4995   36.5373 O   0  5  0  0  0  0  0  0  0  0  0  0
   35.3814   21.5623   35.7451 C   0  0  0  0  0  0  0  0  0  0  0  0
   34.3438   19.6608   35.0178 C   0  0  0  0  0  0  0  0  0  0  0  0
   33.9448   18.3414   34.7195 C   0  0  0  0  0  0  0  0  0  0  0  0
   32.7522   18.1236   33.9982 C   0  0  0  0  0  0  0  0  0  0  0  0
   31.9783   19.2241   33.5783 C   0  0  0  0  0  0  0  0  0  0  0  0
   32.3950   20.5440   33.8759 C   0  0  0  0  0  0  0  0  0  0  0  0
   33.5810   20.7915   34.6132 C   0  0  0  0  0  0  0  0  0  0  0  0
   34.2381   21.9788   35.0998 C   0  0  0  0  0  0  0  0  0  0  0  0
   33.7175   23.3790   34.9434 C   0  0  0  0  0  0  0  0  0  0  0  0
   33.1234   23.9700   36.2370 C   0  0  0  0  0  0  0  0  0  0  0  0
   32.2725   23.0104   37.1079 C   0  0  0  0  0  0  0  0  0  0  0  0
   30.9497   23.4503   37.3423 O   0  0  0  0  0  0  0  0  0  0  0  0
   29.9853   22.9683   36.4959 C   0  0  0  0  0  0  0  0  0  0  0  0
   28.9106   22.2369   37.0462 C   0  0  0  0  0  0  0  0  0  0  0  0
   27.8649   21.7846   36.2187 C   0  0  0  0  0  0  0  0  0  0  0  0
   27.8776   22.0842   34.8435 C   0  0  0  0  0  0  0  0  0  0  0  0
   28.9668   22.7819   34.2888 C   0  0  0  0  0  0  0  0  0  0  0  0
   30.0112   23.2318   35.1137 C   0  0  0  0  0  0  0  0  0  0  0  0
   34.5394   17.5028   35.0385 H   0  0  0  0  0  0  0  0  0  0  0  0
   32.4265   17.1179   33.7681 H   0  0  0  0  0  0  0  0  0  0  0  0
   31.0652   19.0629   33.0212 H   0  0  0  0  0  0  0  0  0  0  0  0
   31.7830   21.3742   33.5558 H   0  0  0  0  0  0  0  0  0  0  0  0
   32.9743   23.4109   34.1446 H   0  0  0  0  0  0  0  0  0  0  0  0
   34.5138   24.0356   34.5874 H   0  0  0  0  0  0  0  0  0  0  0  0
   32.5495   24.8727   36.0070 H   0  0  0  0  0  0  0  0  0  0  0  0
   33.9564   24.3288   36.8518 H   0  0  0  0  0  0  0  0  0  0  0  0
   32.7332   22.9819   38.1010 H   0  0  0  0  0  0  0  0  0  0  0  0
   32.2720   21.9748   36.7616 H   0  0  0  0  0  0  0  0  0  0  0  0
   28.8809   22.0446   38.1095 H   0  0  0  0  0  0  0  0  0  0  0  0
   30.8058   23.8193   34.6830 H   0  0  0  0  0  0  0  0  0  0  0  0
   35.4327   20.1852   35.6885 N   0  0  0  0  0  0  0  0  0  0  0  0
   36.2017   19.6872   36.1170 H   0  0  0  0  0  0  0  0  0  0  0  0
   28.9894   23.0068   33.2347 H   0  0  0  0  0  0  0  0  0  0  0  0
   27.0407   21.2319   36.6467 H   0  0  0  0  0  0  0  0  0  0  0  0
   26.8169   21.7317   34.0495 O   0  0  0  0  0  0  0  0  0  0  0  0
   23.9032   24.7280   33.8355 C   0  0  0  0  0  0  0  0  0  0  0  0
   24.9630   24.7236   32.9101 C   0  0  0  0  0  0  0  0  0  0  0  0
   25.9396   23.7061   32.9662 C   0  0  0  0  0  0  0  0  0  0  0  0
   25.8388   22.6905   33.9395 C   0  0  0  0  0  0  0  0  0  0  0  0
   24.7480   22.6752   34.8303 C   0  0  0  0  0  0  0  0  0  0  0  0
   23.7774   23.6908   34.7739 C   0  0  0  0  0  0  0  0  0  0  0  0
   23.1838   25.5337   33.8230 H   0  0  0  0  0  0  0  0  0  0  0  0
   25.0293   25.5045   32.1650 H   0  0  0  0  0  0  0  0  0  0  0  0
   26.7645   23.7209   32.2721 H   0  0  0  0  0  0  0  0  0  0  0  0
   24.6692   21.8936   35.5737 H   0  0  0  0  0  0  0  0  0  0  0  0
   22.9574   23.6897   35.4866 H   0  0  0  0  0  0  0  0  0  0  0  0
  1  2  2  0  0  0  0
  2  3  1  0  0  0  0
  2  4  1  0  0  0  0
  4 11  2  0  0  0  0
  4 34  1  0  0  0  0
  5  6  1  0  0  0  0
  5 10  2  0  0  0  0
  5 34  1  0  0  0  0
  6  7  2  0  0  0  0
  6 22  1  0  0  0  0
  7  8  1  0  0  0  0
  7 23  1  0  0  0  0
  8  9  2  0  0  0  0
  8 24  1  0  0  0  0
  9 10  1  0  0  0  0
  9 25  1  0  0  0  0
 10 11  1  0  0  0  0
 11 12  1  0  0  0  0
 12 26  1  0  0  0  0
 12 27  1  0  0  0  0
 12 13  1  0  0  0  0
 13 14  1  0  0  0  0
 13 28  1  0  0  0  0
 13 29  1  0  0  0  0
 14 15  1  0  0  0  0
 14 30  1  0  0  0  0
 14 31  1  0  0  0  0
 15 16  1  0  0  0  0
 16 17  1  0  0  0  0
 16 21  2  0  0  0  0
 17 18  2  0  0  0  0
 17 32  1  0  0  0  0
 18 19  1  0  0  0  0
 18 37  1  0  0  0  0
 19 20  2  0  0  0  0
 19 38  1  0  0  0  0
 20 21  1  0  0  0  0
 20 36  1  0  0  0  0
 21 33  1  0  0  0  0
 34 35  1  0  0  0  0
 38 42  1  0  0  0  0
 39 40  2  0  0  0  0
 39 44  1  0  0  0  0
 39 45  1  0  0  0  0
 40 41  1  0  0  0  0
 40 46  1  0  0  0  0
 41 42  2  0  0  0  0
 41 47  1  0  0  0  0
 42 43  1  0  0  0  0
 43 44  2  0  0  0  0
 43 48  1  0  0  0  0
 44 49  1  0  0  0  0
M  END
>  <r_user_dG.exp>
-7.129245

$$$$
65
  PyMOL2.3          3D                             0

 43 45  0  0  0  0  0  0  0  0999 V2000
   37.5425   22.0816   36.9536 O   0  0  0  0  0  0  0  0  0  0  0  0
   36.6162   22.5767   36.2685 C   0  0  0  0  0  0  0  0  0  0  0  0
   36.5603   23.8094   36.0479 O   0  5  0  0  0  0  0  0  0  0  0  0
   35.5402   21.7017   35.7171 C   0  0  0  0  0  0  0  0  0  0  0  0
   35.7208   20.0023   36.0460 S   0  0  0  0  0  0  0  0  0  0  0  0
   34.2390   19.6034   35.1886 C   0  0  0  0  0  0  0  0  0  0  0  0
   33.6579   18.3292   35.0022 C   0  0  0  0  0  0  0  0  0  0  0  0
   32.4532   18.1942   34.2941 C   0  0  0  0  0  0  0  0  0  0  0  0
   31.8251   19.3383   33.7684 C   0  0  0  0  0  0  0  0  0  0  0  0
   32.4156   20.6047   33.9588 C   0  0  0  0  0  0  0  0  0  0  0  0
   33.6310   20.7904   34.6674 C   0  0  0  0  0  0  0  0  0  0  0  0
   34.3907   22.0014   34.9882 C   0  0  0  0  0  0  0  0  0  0  0  0
   33.9655   23.3926   34.5832 C   0  0  0  0  0  0  0  0  0  0  0  0
   33.4131   24.2347   35.7519 C   0  0  0  0  0  0  0  0  0  0  0  0
   32.1659   23.6422   36.4025 C   0  0  0  0  0  0  0  0  0  0  0  0
   31.0694   23.8117   35.5042 O   0  0  0  0  0  0  0  0  0  0  0  0
   29.9115   23.1221   35.7663 C   0  0  0  0  0  0  0  0  0  0  0  0
   29.7250   22.2661   36.8770 C   0  0  0  0  0  0  0  0  0  0  0  0
   28.5257   21.5294   37.0233 C   0  0  0  0  0  0  0  0  0  0  0  0
   28.3826   20.5792   38.1917 C   0  0  0  0  0  0  0  0  0  0  0  0
   27.4852   21.6739   36.0708 C   0  0  0  0  0  0  0  0  0  0  0  0
   26.0185   20.7639   36.2305 Cl  0  0  0  0  0  0  0  0  0  0  0  0
   27.6534   22.5708   34.9857 C   0  0  0  0  0  0  0  0  0  0  0  0
   26.5461   22.7676   33.9709 C   0  0  0  0  0  0  0  0  0  0  0  0
   28.8621   23.2825   34.8391 C   0  0  0  0  0  0  0  0  0  0  0  0
   34.4115   16.9134   35.6436 Cl  0  0  0  0  0  0  0  0  0  0  0  0
   32.0054   17.2199   34.1615 H   0  0  0  0  0  0  0  0  0  0  0  0
   30.8957   19.2504   33.2249 H   0  0  0  0  0  0  0  0  0  0  0  0
   31.9144   21.4666   33.5546 H   0  0  0  0  0  0  0  0  0  0  0  0
   33.1977   23.3389   33.8141 H   0  0  0  0  0  0  0  0  0  0  0  0
   34.7966   23.9258   34.1106 H   0  0  0  0  0  0  0  0  0  0  0  0
   33.1964   25.2485   35.4080 H   0  0  0  0  0  0  0  0  0  0  0  0
   34.1644   24.3340   36.5285 H   0  0  0  0  0  0  0  0  0  0  0  0
   31.9488   24.1575   37.3352 H   0  0  0  0  0  0  0  0  0  0  0  0
   32.3476   22.5932   36.6332 H   0  0  0  0  0  0  0  0  0  0  0  0
   30.4978   22.1428   37.6232 H   0  0  0  0  0  0  0  0  0  0  0  0
   27.3950   20.6510   38.6538 H   0  0  0  0  0  0  0  0  0  0  0  0
   28.5276   19.5533   37.8521 H   0  0  0  0  0  0  0  0  0  0  0  0
   29.1253   20.7848   38.9673 H   0  0  0  0  0  0  0  0  0  0  0  0
   26.7942   23.5632   33.2626 H   0  0  0  0  0  0  0  0  0  0  0  0
   26.3730   21.8508   33.4001 H   0  0  0  0  0  0  0  0  0  0  0  0
   25.6142   23.0472   34.4696 H   0  0  0  0  0  0  0  0  0  0  0  0
   28.9950   23.9546   34.0002 H   0  0  0  0  0  0  0  0  0  0  0  0
  1  2  2  0  0  0  0
  2  3  1  0  0  0  0
  2  4  1  0  0  0  0
  4  5  1  0  0  0  0
  4 12  2  0  0  0  0
  5  6  1  0  0  0  0
  6  7  1  0  0  0  0
  6 11  2  0  0  0  0
  7  8  2  0  0  0  0
  7 26  1  0  0  0  0
  8  9  1  0  0  0  0
  8 27  1  0  0  0  0
  9 10  2  0  0  0  0
  9 28  1  0  0  0  0
 10 11  1  0  0  0  0
 10 29  1  0  0  0  0
 11 12  1  0  0  0  0
 12 13  1  0  0  0  0
 13 30  1  0  0  0  0
 13 31  1  0  0  0  0
 13 14  1  0  0  0  0
 14 15  1  0  0  0  0
 14 32  1  0  0  0  0
 14 33  1  0  0  0  0
 15 16  1  0  0  0  0
 15 34  1  0  0  0  0
 15 35  1  0  0  0  0
 16 17  1  0  0  0  0
 17 18  1  0  0  0  0
 17 25  2  0  0  0  0
 18 19  2  0  0  0  0
 18 36  1  0  0  0  0
 19 20  1  0  0  0  0
 19 21  1  0  0  0  0
 20 37  1  0  0  0  0
 20 38  1  0  0  0  0
 20 39  1  0  0  0  0
 21 22  1  0  0  0  0
 21 23  2  0  0  0  0
 23 24  1  0  0  0  0
 23 25  1  0  0  0  0
 24 40  1  0  0  0  0
 24 41  1  0  0  0  0
 24 42  1  0  0  0  0
 25 43  1  0  0  0  0
M  END
>  <r_user_dG.exp>
-8.407336

$$$$
58
  PyMOL2.3          3D                             0

 47 49  0  0  0  0  0  0  0  0999 V2000
   37.5691   21.8573   37.0041 O   0  0  0  0  0  0  0  0  0  0  0  0
   36.6585   22.3947   36.3325 C   0  0  0  0  0  0  0  0  0  0  0  0
   36.6900   23.6278   36.1463 O   0  5  0  0  0  0  0  0  0  0  0  0
   35.5327   21.6015   35.7854 C   0  0  0  0  0  0  0  0  0  0  0  0
   34.2871   19.7565   35.3344 C   0  0  0  0  0  0  0  0  0  0  0  0
   33.7033   18.4539   35.2134 C   0  0  0  0  0  0  0  0  0  0  0  0
   32.4366   18.3013   34.6483 C   0  0  0  0  0  0  0  0  0  0  0  0
   31.7453   19.4329   34.1535 C   0  0  0  0  0  0  0  0  0  0  0  0
   32.3279   20.7281   34.2576 C   0  0  0  0  0  0  0  0  0  0  0  0
   33.5875   20.9021   34.8559 C   0  0  0  0  0  0  0  0  0  0  0  0
   34.3921   22.0494   35.1460 C   0  0  0  0  0  0  0  0  0  0  0  0
   33.9984   23.4707   34.8199 C   0  0  0  0  0  0  0  0  0  0  0  0
   33.4097   24.2204   36.0339 C   0  0  0  0  0  0  0  0  0  0  0  0
   32.1192   23.5867   36.5855 C   0  0  0  0  0  0  0  0  0  0  0  0
   31.0797   23.7522   35.6292 O   0  0  0  0  0  0  0  0  0  0  0  0
   29.8790   23.1075   35.8399 C   0  0  0  0  0  0  0  0  0  0  0  0
   29.6226   22.2242   36.9151 C   0  0  0  0  0  0  0  0  0  0  0  0
   28.3780   21.5716   37.0313 C   0  0  0  0  0  0  0  0  0  0  0  0
   28.1571   20.5876   38.1670 C   0  0  0  0  0  0  0  0  0  0  0  0
   27.3613   21.8183   36.0799 C   0  0  0  0  0  0  0  0  0  0  0  0
   25.8404   21.0018   36.1964 Cl  0  0  0  0  0  0  0  0  0  0  0  0
   27.5993   22.7230   35.0196 C   0  0  0  0  0  0  0  0  0  0  0  0
   26.5213   23.0142   33.9902 C   0  0  0  0  0  0  0  0  0  0  0  0
   28.8549   23.3505   34.9073 C   0  0  0  0  0  0  0  0  0  0  0  0
   34.2402   17.6161   35.5880 H   0  0  0  0  0  0  0  0  0  0  0  0
   31.6440   16.7517   34.5505 Cl  0  0  0  0  0  0  0  0  0  0  0  0
   30.7687   19.3149   33.7082 H   0  0  0  0  0  0  0  0  0  0  0  0
   31.7915   21.5927   33.8953 H   0  0  0  0  0  0  0  0  0  0  0  0
   33.2757   23.4706   34.0019 H   0  0  0  0  0  0  0  0  0  0  0  0
   34.8618   24.0183   34.4308 H   0  0  0  0  0  0  0  0  0  0  0  0
   33.2194   25.2539   35.7465 H   0  0  0  0  0  0  0  0  0  0  0  0
   34.1575   24.2695   36.8263 H   0  0  0  0  0  0  0  0  0  0  0  0
   31.8479   24.0780   37.5202 H   0  0  0  0  0  0  0  0  0  0  0  0
   32.2772   22.5315   36.8114 H   0  0  0  0  0  0  0  0  0  0  0  0
   30.3810   22.0300   37.6546 H   0  0  0  0  0  0  0  0  0  0  0  0
   27.1818   20.7330   38.6315 H   0  0  0  0  0  0  0  0  0  0  0  0
   28.2082   19.5681   37.7871 H   0  0  0  0  0  0  0  0  0  0  0  0
   28.9135   20.6984   38.9418 H   0  0  0  0  0  0  0  0  0  0  0  0
   26.8433   23.7667   33.2689 H   0  0  0  0  0  0  0  0  0  0  0  0
   26.2637   22.1090   33.4393 H   0  0  0  0  0  0  0  0  0  0  0  0
   25.6211   23.3848   34.4804 H   0  0  0  0  0  0  0  0  0  0  0  0
   29.0431   24.0270   34.0891 H   0  0  0  0  0  0  0  0  0  0  0  0
   36.5226   19.2887   36.4406 C   0  0  0  0  0  0  0  0  0  0  0  0
   36.2141   18.2637   36.3087 H   0  0  0  0  0  0  0  0  0  0  0  0
   37.4698   19.4162   35.9173 H   0  0  0  0  0  0  0  0  0  0  0  0
   36.6299   19.4686   37.5097 H   0  0  0  0  0  0  0  0  0  0  0  0
   35.4941   20.1889   35.8733 N   0  0  0  0  0  0  0  0  0  0  0  0
  1  2  2  0  0  0  0
  2  3  1  0  0  0  0
  2  4  1  0  0  0  0
  4 11  2  0  0  0  0
  4 47  1  0  0  0  0
  5  6  1  0  0  0  0
  5 10  2  0  0  0  0
  5 47  1  0  0  0  0
  6  7  2  0  0  0  0
  6 25  1  0  0  0  0
  7  8  1  0  0  0  0
  7 26  1  0  0  0  0
  8  9  2  0  0  0  0
  8 27  1  0  0  0  0
  9 10  1  0  0  0  0
  9 28  1  0  0  0  0
 10 11  1  0  0  0  0
 11 12  1  0  0  0  0
 12 29  1  0  0  0  0
 12 30  1  0  0  0  0
 12 13  1  0  0  0  0
 13 14  1  0  0  0  0
 13 31  1  0  0  0  0
 13 32  1  0  0  0  0
 14 15  1  0  0  0  0
 14 33  1  0  0  0  0
 14 34  1  0  0  0  0
 15 16  1  0  0  0  0
 16 17  1  0  0  0  0
 16 24  2  0  0  0  0
 17 18  2  0  0  0  0
 17 35  1  0  0  0  0
 18 19  1  0  0  0  0
 18 20  1  0  0  0  0
 19 36  1  0  0  0  0
 19 37  1  0  0  0  0
 19 38  1  0  0  0  0
 20 21  1  0  0  0  0
 20 22  2  0  0  0  0
 22 23  1  0  0  0  0
 22 24  1  0  0  0  0
 23 39  1  0  0  0  0
 23 40  1  0  0  0  0
 23 41  1  0  0  0  0
 24 42  1  0  0  0  0
 43 44  1  0  0  0  0
 43 45  1  0  0  0  0
 43 46  1  0  0  0  0
 43 47  1  0  0  0  0
M  END
>  <r_user_dG.exp>
-9.407899

$$$$
63
  PyMOL2.3          3D                             0

 43 45  0  0  0  0  0  0  0  0999 V2000
   37.5746   21.7632   37.1417 O   0  0  0  0  0  0  0  0  0  0  0  0
   36.6681   22.3024   36.4637 C   0  0  0  0  0  0  0  0  0  0  0  0
   36.6046   23.5426   36.3291 O   0  5  0  0  0  0  0  0  0  0  0  0
   35.6125   21.4681   35.8195 C   0  0  0  0  0  0  0  0  0  0  0  0
   35.6163   19.7860   36.2679 S   0  0  0  0  0  0  0  0  0  0  0  0
   34.1486   19.4958   35.3630 C   0  0  0  0  0  0  0  0  0  0  0  0
   33.3991   18.3063   35.3110 C   0  0  0  0  0  0  0  0  0  0  0  0
   32.2053   18.2816   34.5680 C   0  0  0  0  0  0  0  0  0  0  0  0
   31.8078   19.3983   33.8192 C   0  0  0  0  0  0  0  0  0  0  0  0
   32.5760   20.5712   33.8611 C   0  0  0  0  0  0  0  0  0  0  0  0
   33.7446   20.6773   34.6602 C   0  0  0  0  0  0  0  0  0  0  0  0
   34.5967   21.8148   34.9417 C   0  0  0  0  0  0  0  0  0  0  0  0
   34.3441   23.1929   34.3747 C   0  0  0  0  0  0  0  0  0  0  0  0
   33.6592   24.1774   35.3540 C   0  0  0  0  0  0  0  0  0  0  0  0
   32.3682   23.6592   35.9981 C   0  0  0  0  0  0  0  0  0  0  0  0
   31.3082   23.6529   35.0484 O   0  0  0  0  0  0  0  0  0  0  0  0
   30.0925   23.1282   35.4377 C   0  0  0  0  0  0  0  0  0  0  0  0
   29.9066   22.3323   36.5993 C   0  0  0  0  0  0  0  0  0  0  0  0
   28.6445   21.7775   36.8963 C   0  0  0  0  0  0  0  0  0  0  0  0
   28.5031   20.8647   38.1011 C   0  0  0  0  0  0  0  0  0  0  0  0
   27.5336   22.0432   36.0607 C   0  0  0  0  0  0  0  0  0  0  0  0
   25.9789   21.3609   36.4200 Cl  0  0  0  0  0  0  0  0  0  0  0  0
   27.7099   22.8612   34.9200 C   0  0  0  0  0  0  0  0  0  0  0  0
   26.5355   23.1681   34.0123 C   0  0  0  0  0  0  0  0  0  0  0  0
   28.9855   23.3844   34.6087 C   0  0  0  0  0  0  0  0  0  0  0  0
   33.7159   17.4353   35.8751 H   0  0  0  0  0  0  0  0  0  0  0  0
   31.1885   16.8935   34.5870 Cl  0  0  0  0  0  0  0  0  0  0  0  0
   30.8965   19.3564   33.2416 H   0  0  0  0  0  0  0  0  0  0  0  0
   32.2340   21.4251   33.3054 H   0  0  0  0  0  0  0  0  0  0  0  0
   33.7311   23.1132   33.4749 H   0  0  0  0  0  0  0  0  0  0  0  0
   35.2762   23.6365   34.0197 H   0  0  0  0  0  0  0  0  0  0  0  0
   33.4673   25.1208   34.8478 H   0  0  0  0  0  0  0  0  0  0  0  0
   34.3410   24.4209   36.1667 H   0  0  0  0  0  0  0  0  0  0  0  0
   32.0730   24.3054   36.8275 H   0  0  0  0  0  0  0  0  0  0  0  0
   32.5585   22.6676   36.4134 H   0  0  0  0  0  0  0  0  0  0  0  0
   30.7264   22.1034   37.2672 H   0  0  0  0  0  0  0  0  0  0  0  0
   27.6262   21.1237   38.6966 H   0  0  0  0  0  0  0  0  0  0  0  0
   28.4060   19.8276   37.7691 H   0  0  0  0  0  0  0  0  0  0  0  0
   29.3760   20.9361   38.7542 H   0  0  0  0  0  0  0  0  0  0  0  0
   26.8080   23.8690   33.2196 H   0  0  0  0  0  0  0  0  0  0  0  0
   26.1690   22.2514   33.5451 H   0  0  0  0  0  0  0  0  0  0  0  0
   25.7175   23.6105   34.5842 H   0  0  0  0  0  0  0  0  0  0  0  0
   29.1217   23.9935   33.7225 H   0  0  0  0  0  0  0  0  0  0  0  0
  1  2  2  0  0  0  0
  2  3  1  0  0  0  0
  2  4  1  0  0  0  0
  4  5  1  0  0  0  0
  4 12  2  0  0  0  0
  5  6  1  0  0  0  0
  6  7  1  0  0  0  0
  6 11  2  0  0  0  0
  7  8  2  0  0  0  0
  7 26  1  0  0  0  0
  8  9  1  0  0  0  0
  8 27  1  0  0  0  0
  9 10  2  0  0  0  0
  9 28  1  0  0  0  0
 10 11  1  0  0  0  0
 10 29  1  0  0  0  0
 11 12  1  0  0  0  0
 12 13  1  0  0  0  0
 13 30  1  0  0  0  0
 13 31  1  0  0  0  0
 13 14  1  0  0  0  0
 14 15  1  0  0  0  0
 14 32  1  0  0  0  0
 14 33  1  0  0  0  0
 15 16  1  0  0  0  0
 15 34  1  0  0  0  0
 15 35  1  0  0  0  0
 16 17  1  0  0  0  0
 17 18  1  0  0  0  0
 17 25  2  0  0  0  0
 18 19  2  0  0  0  0
 18 36  1  0  0  0  0
 19 20  1  0  0  0  0
 19 21  1  0  0  0  0
 20 37  1  0  0  0  0
 20 38  1  0  0  0  0
 20 39  1  0  0  0  0
 21 22  1  0  0  0  0
 21 23  2  0  0  0  0
 23 24  1  0  0  0  0
 23 25  1  0  0  0  0
 24 40  1  0  0  0  0
 24 41  1  0  0  0  0
 24 42  1  0  0  0  0
 25 43  1  0  0  0  0
M  END
>  <r_user_dG.exp>
-9.062252

$$$$
27
  PyMOL2.3          3D                             0

 38 40  0  0  0  0  0  0  0  0999 V2000
   36.5914   23.6822   36.1331 O   0  0  0  0  0  0  0  0  0  0  0  0
   36.4193   22.4934   36.4812 C   0  0  0  0  0  0  0  0  0  0  0  0
   37.1063   21.9750   37.3946 O   0  5  0  0  0  0  0  0  0  0  0  0
   35.3866   21.6594   35.8134 C   0  0  0  0  0  0  0  0  0  0  0  0
   34.3107   19.6688   35.4615 C   0  0  0  0  0  0  0  0  0  0  0  0
   33.8417   18.3364   35.4683 C   0  0  0  0  0  0  0  0  0  0  0  0
   32.7951   17.9645   34.6018 C   0  0  0  0  0  0  0  0  0  0  0  0
   32.2168   18.9303   33.7507 C   0  0  0  0  0  0  0  0  0  0  0  0
   32.6820   20.2596   33.7590 C   0  0  0  0  0  0  0  0  0  0  0  0
   33.7373   20.6662   34.6125 C   0  0  0  0  0  0  0  0  0  0  0  0
   34.4263   21.9141   34.8584 C   0  0  0  0  0  0  0  0  0  0  0  0
   34.1353   23.2330   34.1914 C   0  0  0  0  0  0  0  0  0  0  0  0
   33.5213   24.2766   35.1467 C   0  0  0  0  0  0  0  0  0  0  0  0
   32.1774   23.8558   35.7496 C   0  0  0  0  0  0  0  0  0  0  0  0
   31.1951   23.8212   34.7182 O   0  0  0  0  0  0  0  0  0  0  0  0
   29.9229   23.4360   35.0623 C   0  0  0  0  0  0  0  0  0  0  0  0
   29.5639   22.8946   36.3262 C   0  0  0  0  0  0  0  0  0  0  0  0
   28.2356   22.5213   36.5950 C   0  0  0  0  0  0  0  0  0  0  0  0
   27.2436   22.6871   35.6093 C   0  0  0  0  0  0  0  0  0  0  0  0
   27.5847   23.2219   34.3539 C   0  0  0  0  0  0  0  0  0  0  0  0
   28.9169   23.5858   34.0852 C   0  0  0  0  0  0  0  0  0  0  0  0
   34.3046   17.6116   36.1243 H   0  0  0  0  0  0  0  0  0  0  0  0
   32.4382   16.9488   34.6025 H   0  0  0  0  0  0  0  0  0  0  0  0
   31.4133   18.6398   33.0900 H   0  0  0  0  0  0  0  0  0  0  0  0
   32.2276   20.9900   33.0982 H   0  0  0  0  0  0  0  0  0  0  0  0
   33.4725   23.0854   33.3386 H   0  0  0  0  0  0  0  0  0  0  0  0
   35.0514   23.6426   33.7697 H   0  0  0  0  0  0  0  0  0  0  0  0
   33.4064   25.2260   34.6259 H   0  0  0  0  0  0  0  0  0  0  0  0
   34.2089   24.4814   35.9650 H   0  0  0  0  0  0  0  0  0  0  0  0
   31.8753   24.5814   36.5066 H   0  0  0  0  0  0  0  0  0  0  0  0
   32.2828   22.8834   36.2354 H   0  0  0  0  0  0  0  0  0  0  0  0
   30.2897   22.7496   37.1124 H   0  0  0  0  0  0  0  0  0  0  0  0
   29.1716   23.9931   33.1173 H   0  0  0  0  0  0  0  0  0  0  0  0
   35.3043   20.3167   36.1783 N   0  0  0  0  0  0  0  0  0  0  0  0
   35.9460   19.9203   36.8644 H   0  0  0  0  0  0  0  0  0  0  0  0
   26.8271   23.3511   33.5949 H   0  0  0  0  0  0  0  0  0  0  0  0
   26.2204   22.4040   35.8173 H   0  0  0  0  0  0  0  0  0  0  0  0
   27.9748   22.1003   37.5531 H   0  0  0  0  0  0  0  0  0  0  0  0
  1  2  2  0  0  0  0
  2  3  1  0  0  0  0
  2  4  1  0  0  0  0
  4 11  2  0  0  0  0
  4 34  1  0  0  0  0
  5  6  1  0  0  0  0
  5 10  2  0  0  0  0
  5 34  1  0  0  0  0
  6  7  2  0  0  0  0
  6 22  1  0  0  0  0
  7  8  1  0  0  0  0
  7 23  1  0  0  0  0
  8  9  2  0  0  0  0
  8 24  1  0  0  0  0
  9 10  1  0  0  0  0
  9 25  1  0  0  0  0
 10 11  1  0  0  0  0
 11 12  1  0  0  0  0
 12 26  1  0  0  0  0
 12 27  1  0  0  0  0
 12 13  1  0  0  0  0
 13 14  1  0  0  0  0
 13 28  1  0  0  0  0
 13 29  1  0  0  0  0
 14 15  1  0  0  0  0
 14 30  1  0  0  0  0
 14 31  1  0  0  0  0
 15 16  1  0  0  0  0
 16 17  1  0  0  0  0
 16 21  2  0  0  0  0
 17 18  2  0  0  0  0
 17 32  1  0  0  0  0
 18 19  1  0  0  0  0
 18 38  1  0  0  0  0
 19 20  2  0  0  0  0
 19 37  1  0  0  0  0
 20 21  1  0  0  0  0
 20 36  1  0  0  0  0
 21 33  1  0  0  0  0
 34 35  1  0  0  0  0
M  END
>  <r_user_dG.exp>
-6.116391

$$$$
47
  PyMOL2.3          3D                             0

 43 46  0  0  0  0  0  0  0  0999 V2000
   37.6789   21.5857   36.9738 O   0  0  0  0  0  0  0  0  0  0  0  0
   36.6792   22.1827   36.5080 C   0  0  0  0  0  0  0  0  0  0  0  0
   36.5805   23.4324   36.5511 O   0  5  0  0  0  0  0  0  0  0  0  0
   35.5919   21.3795   35.8977 C   0  0  0  0  0  0  0  0  0  0  0  0
   34.6870   19.3690   35.2835 C   0  0  0  0  0  0  0  0  0  0  0  0
   34.3966   18.0140   35.0305 C   0  0  0  0  0  0  0  0  0  0  0  0
   33.1720   17.6669   34.4268 C   0  0  0  0  0  0  0  0  0  0  0  0
   32.2439   18.6768   34.0974 C   0  0  0  0  0  0  0  0  0  0  0  0
   32.5390   20.0287   34.3682 C   0  0  0  0  0  0  0  0  0  0  0  0
   33.7692   20.4098   34.9627 C   0  0  0  0  0  0  0  0  0  0  0  0
   34.3535   21.6644   35.3627 C   0  0  0  0  0  0  0  0  0  0  0  0
   33.6811   22.9972   35.2513 C   0  0  0  0  0  0  0  0  0  0  0  0
   32.7790   23.2529   36.4658 C   0  0  0  0  0  0  0  0  0  0  0  0
   31.7437   24.3586   36.2102 C   0  0  0  0  0  0  0  0  0  0  0  0
   30.9057   24.0335   35.1066 O   0  0  0  0  0  0  0  0  0  0  0  0
   29.7762   23.2663   35.2973 C   0  0  0  0  0  0  0  0  0  0  0  0
   27.7083   22.4059   34.2981 C   0  0  0  0  0  0  0  0  0  0  0  0
   28.8993   23.1542   34.1995 C   0  0  0  0  0  0  0  0  0  0  0  0
   35.1080   17.2472   35.2911 H   0  0  0  0  0  0  0  0  0  0  0  0
   32.9385   16.6309   34.2233 H   0  0  0  0  0  0  0  0  0  0  0  0
   31.3027   18.4102   33.6367 H   0  0  0  0  0  0  0  0  0  0  0  0
   31.8135   20.7882   34.1163 H   0  0  0  0  0  0  0  0  0  0  0  0
   33.0925   23.0216   34.3345 H   0  0  0  0  0  0  0  0  0  0  0  0
   34.4154   23.7991   35.1442 H   0  0  0  0  0  0  0  0  0  0  0  0
   33.3972   23.5078   37.3259 H   0  0  0  0  0  0  0  0  0  0  0  0
   32.2639   22.3319   36.7327 H   0  0  0  0  0  0  0  0  0  0  0  0
   32.2686   25.2794   35.9558 H   0  0  0  0  0  0  0  0  0  0  0  0
   31.1700   24.5850   37.1068 H   0  0  0  0  0  0  0  0  0  0  0  0
   29.1410   23.6584   33.2732 H   0  0  0  0  0  0  0  0  0  0  0  0
   29.4488   22.5987   36.5007 C   0  0  0  0  0  0  0  0  0  0  0  0
   27.0508   22.3356   33.4439 H   0  0  0  0  0  0  0  0  0  0  0  0
   28.2657   21.8371   36.5898 C   0  0  0  0  0  0  0  0  0  0  0  0
   27.3715   21.7345   35.4888 C   0  0  0  0  0  0  0  0  0  0  0  0
   26.2274   21.0173   35.5647 N   0  0  0  0  0  0  0  0  0  0  0  0
   25.9225   20.3940   36.7246 C   0  0  0  0  0  0  0  0  0  0  0  0
   26.7543   20.4280   37.8593 C   0  0  0  0  0  0  0  0  0  0  0  0
   27.9551   21.1567   37.7819 C   0  0  0  0  0  0  0  0  0  0  0  0
   24.9905   19.8448   36.7468 H   0  0  0  0  0  0  0  0  0  0  0  0
   26.4819   19.9050   38.7660 H   0  0  0  0  0  0  0  0  0  0  0  0
   28.6238   21.1981   38.6260 H   0  0  0  0  0  0  0  0  0  0  0  0
   30.0929   22.6530   37.3644 H   0  0  0  0  0  0  0  0  0  0  0  0
   35.7739   20.0054   35.8488 N   0  0  0  0  0  0  0  0  0  0  0  0
   36.6235   19.5959   36.2090 H   0  0  0  0  0  0  0  0  0  0  0  0
  1  2  2  0  0  0  0
  2  3  1  0  0  0  0
  2  4  1  0  0  0  0
  4 11  2  0  0  0  0
  4 42  1  0  0  0  0
  5  6  1  0  0  0  0
  5 10  2  0  0  0  0
  5 42  1  0  0  0  0
  6  7  2  0  0  0  0
  6 19  1  0  0  0  0
  7  8  1  0  0  0  0
  7 20  1  0  0  0  0
  8  9  2  0  0  0  0
  8 21  1  0  0  0  0
  9 10  1  0  0  0  0
  9 22  1  0  0  0  0
 10 11  1  0  0  0  0
 11 12  1  0  0  0  0
 12 23  1  0  0  0  0
 12 24  1  0  0  0  0
 12 13  1  0  0  0  0
 13 14  1  0  0  0  0
 13 25  1  0  0  0  0
 13 26  1  0  0  0  0
 14 15  1  0  0  0  0
 14 27  1  0  0  0  0
 14 28  1  0  0  0  0
 15 16  1  0  0  0  0
 16 18  2  0  0  0  0
 16 30  1  0  0  0  0
 17 18  1  0  0  0  0
 17 31  1  0  0  0  0
 17 33  2  0  0  0  0
 18 29  1  0  0  0  0
 30 32  2  0  0  0  0
 30 41  1  0  0  0  0
 32 33  1  0  0  0  0
 32 37  1  0  0  0  0
 33 34  1  0  0  0  0
 34 35  2  0  0  0  0
 35 36  1  0  0  0  0
 35 38  1  0  0  0  0
 36 37  2  0  0  0  0
 36 39  1  0  0  0  0
 37 40  1  0  0  0  0
 42 43  1  0  0  0  0
M  END
>  <r_user_dG.exp>
-5.775532

$$$$
57
  PyMOL2.3          3D                             0

 47 50  0  0  0  0  0  0  0  0999 V2000
   36.6192   23.8053   35.8374 O   0  0  0  0  0  0  0  0  0  0  0  0
   36.5145   22.6419   36.2811 C   0  0  0  0  0  0  0  0  0  0  0  0
   37.2454   22.2952   37.2530 O   0  5  0  0  0  0  0  0  0  0  0  0
   35.5039   21.7152   35.6992 C   0  0  0  0  0  0  0  0  0  0  0  0
   34.4272   19.7363   35.3081 C   0  0  0  0  0  0  0  0  0  0  0  0
   33.9685   18.3959   35.2404 C   0  0  0  0  0  0  0  0  0  0  0  0
   32.8083   18.0841   34.5082 C   0  0  0  0  0  0  0  0  0  0  0  0
   32.1038   19.1115   33.8540 C   0  0  0  0  0  0  0  0  0  0  0  0
   32.5563   20.4366   33.9182 C   0  0  0  0  0  0  0  0  0  0  0  0
   33.7328   20.7883   34.6378 C   0  0  0  0  0  0  0  0  0  0  0  0
   34.4270   22.0133   34.8752 C   0  0  0  0  0  0  0  0  0  0  0  0
   34.0172   23.3610   34.3466 C   0  0  0  0  0  0  0  0  0  0  0  0
   33.3965   24.2875   35.4135 C   0  0  0  0  0  0  0  0  0  0  0  0
   32.1933   23.6869   36.1512 C   0  0  0  0  0  0  0  0  0  0  0  0
   31.0554   23.6317   35.2914 O   0  0  0  0  0  0  0  0  0  0  0  0
   29.8919   23.0908   35.7989 C   0  0  0  0  0  0  0  0  0  0  0  0
   27.4517   22.0076   36.7804 C   0  0  0  0  0  0  0  0  0  0  0  0
   28.6458   21.8211   37.4923 C   0  0  0  0  0  0  0  0  0  0  0  0
   29.8492   22.3603   37.0082 C   0  0  0  0  0  0  0  0  0  0  0  0
   34.5042   17.6131   35.7486 H   0  0  0  0  0  0  0  0  0  0  0  0
   32.4626   17.0624   34.4601 H   0  0  0  0  0  0  0  0  0  0  0  0
   31.2050   18.8706   33.3014 H   0  0  0  0  0  0  0  0  0  0  0  0
   32.0025   21.2177   33.4144 H   0  0  0  0  0  0  0  0  0  0  0  0
   33.3032   23.2382   33.5322 H   0  0  0  0  0  0  0  0  0  0  0  0
   34.8737   23.8648   33.8954 H   0  0  0  0  0  0  0  0  0  0  0  0
   33.1179   25.2423   34.9598 H   0  0  0  0  0  0  0  0  0  0  0  0
   34.1569   24.5296   36.1567 H   0  0  0  0  0  0  0  0  0  0  0  0
   31.9665   24.3085   37.0169 H   0  0  0  0  0  0  0  0  0  0  0  0
   32.4606   22.6980   36.5198 H   0  0  0  0  0  0  0  0  0  0  0  0
   30.7421   22.1914   37.5861 H   0  0  0  0  0  0  0  0  0  0  0  0
   27.4659   22.7246   35.5693 C   0  0  0  0  0  0  0  0  0  0  0  0
   28.6840   23.2638   35.0712 C   0  0  0  0  0  0  0  0  0  0  0  0
   28.6732   23.9726   33.8522 C   0  0  0  0  0  0  0  0  0  0  0  0
   27.4721   24.1412   33.1339 C   0  0  0  0  0  0  0  0  0  0  0  0
   26.2699   23.6063   33.6333 C   0  0  0  0  0  0  0  0  0  0  0  0
   26.2653   22.9002   34.8494 C   0  0  0  0  0  0  0  0  0  0  0  0
   29.5828   24.3910   33.4473 H   0  0  0  0  0  0  0  0  0  0  0  0
   27.4763   24.6820   32.1985 H   0  0  0  0  0  0  0  0  0  0  0  0
   25.3486   23.7373   33.0799 H   0  0  0  0  0  0  0  0  0  0  0  0
   25.3392   22.4907   35.2248 H   0  0  0  0  0  0  0  0  0  0  0  0
   28.6342   21.2679   38.4208 H   0  0  0  0  0  0  0  0  0  0  0  0
   26.5290   21.5972   37.1623 H   0  0  0  0  0  0  0  0  0  0  0  0
   36.4864   19.5682   36.7280 C   0  0  0  0  0  0  0  0  0  0  0  0
   36.2968   18.4950   36.6759 H   0  0  0  0  0  0  0  0  0  0  0  0
   37.4944   19.7490   36.3377 H   0  0  0  0  0  0  0  0  0  0  0  0
   36.4409   19.8737   37.7802 H   0  0  0  0  0  0  0  0  0  0  0  0
   35.5115   20.3230   35.9457 N   0  0  0  0  0  0  0  0  0  0  0  0
  1  2  2  0  0  0  0
  2  3  1  0  0  0  0
  2  4  1  0  0  0  0
  4 11  2  0  0  0  0
  4 47  1  0  0  0  0
  5  6  1  0  0  0  0
  5 10  2  0  0  0  0
  5 47  1  0  0  0  0
  6  7  2  0  0  0  0
  6 20  1  0  0  0  0
  7  8  1  0  0  0  0
  7 21  1  0  0  0  0
  8  9  2  0  0  0  0
  8 22  1  0  0  0  0
  9 10  1  0  0  0  0
  9 23  1  0  0  0  0
 10 11  1  0  0  0  0
 11 12  1  0  0  0  0
 12 24  1  0  0  0  0
 12 25  1  0  0  0  0
 12 13  1  0  0  0  0
 13 14  1  0  0  0  0
 13 26  1  0  0  0  0
 13 27  1  0  0  0  0
 14 15  1  0  0  0  0
 14 28  1  0  0  0  0
 14 29  1  0  0  0  0
 15 16  1  0  0  0  0
 16 19  2  0  0  0  0
 16 32  1  0  0  0  0
 17 18  2  0  0  0  0
 17 31  1  0  0  0  0
 17 42  1  0  0  0  0
 18 19  1  0  0  0  0
 18 41  1  0  0  0  0
 19 30  1  0  0  0  0
 31 32  2  0  0  0  0
 31 36  1  0  0  0  0
 32 33  1  0  0  0  0
 33 34  2  0  0  0  0
 33 37  1  0  0  0  0
 34 35  1  0  0  0  0
 34 38  1  0  0  0  0
 35 36  2  0  0  0  0
 35 39  1  0  0  0  0
 36 40  1  0  0  0  0
 43 44  1  0  0  0  0
 43 45  1  0  0  0  0
 43 46  1  0  0  0  0
 43 47  1  0  0  0  0
M  END
>  <r_user_dG.exp>
-9.038871

$$$$
56
  PyMOL2.3          3D                             0

 47 49  0  0  0  0  0  0  0  0999 V2000
   37.4995   21.9735   37.0428 O   0  0  0  0  0  0  0  0  0  0  0  0
   36.5923   22.4684   36.3282 C   0  0  0  0  0  0  0  0  0  0  0  0
   36.5710   23.7098   36.1637 O   0  5  0  0  0  0  0  0  0  0  0  0
   35.5484   21.5914   35.7018 C   0  0  0  0  0  0  0  0  0  0  0  0
   34.4497   19.6582   35.1790 C   0  0  0  0  0  0  0  0  0  0  0  0
   33.9712   18.3302   35.0213 C   0  0  0  0  0  0  0  0  0  0  0  0
   32.7750   18.0708   34.3319 C   0  0  0  0  0  0  0  0  0  0  0  0
   32.0558   19.1554   33.7803 C   0  0  0  0  0  0  0  0  0  0  0  0
   32.5259   20.4871   33.9184 C   0  0  0  0  0  0  0  0  0  0  0  0
   33.7295   20.7678   34.6286 C   0  0  0  0  0  0  0  0  0  0  0  0
   34.4428   21.9658   34.9604 C   0  0  0  0  0  0  0  0  0  0  0  0
   34.0271   23.3615   34.5737 C   0  0  0  0  0  0  0  0  0  0  0  0
   33.3429   24.1305   35.7206 C   0  0  0  0  0  0  0  0  0  0  0  0
   31.9686   23.5656   36.0916 C   0  0  0  0  0  0  0  0  0  0  0  0
   31.0827   23.8003   35.0061 O   0  0  0  0  0  0  0  0  0  0  0  0
   29.7557   23.4703   35.1671 C   0  0  0  0  0  0  0  0  0  0  0  0
   29.2434   22.7428   36.2664 C   0  0  0  0  0  0  0  0  0  0  0  0
   27.8664   22.4591   36.3615 C   0  0  0  0  0  0  0  0  0  0  0  0
   27.3579   21.6581   37.5454 C   0  0  0  0  0  0  0  0  0  0  0  0
   26.9834   22.9144   35.3574 C   0  0  0  0  0  0  0  0  0  0  0  0
   25.2922   22.5937   35.4780 Cl  0  0  0  0  0  0  0  0  0  0  0  0
   27.4894   23.6357   34.2515 C   0  0  0  0  0  0  0  0  0  0  0  0
   26.5636   24.1455   33.1641 C   0  0  0  0  0  0  0  0  0  0  0  0
   28.8681   23.8984   34.1643 C   0  0  0  0  0  0  0  0  0  0  0  0
   34.5219   17.5091   35.4428 H   0  0  0  0  0  0  0  0  0  0  0  0
   32.3987   17.0527   34.2247 H   0  0  0  0  0  0  0  0  0  0  0  0
   31.1289   18.9642   33.2510 H   0  0  0  0  0  0  0  0  0  0  0  0
   31.9555   21.3062   33.4900 H   0  0  0  0  0  0  0  0  0  0  0  0
   33.3665   23.3275   33.7057 H   0  0  0  0  0  0  0  0  0  0  0  0
   34.9040   23.9221   34.2433 H   0  0  0  0  0  0  0  0  0  0  0  0
   33.2311   25.1748   35.4279 H   0  0  0  0  0  0  0  0  0  0  0  0
   33.9852   24.1359   36.6021 H   0  0  0  0  0  0  0  0  0  0  0  0
   31.6052   24.0629   36.9911 H   0  0  0  0  0  0  0  0  0  0  0  0
   32.0431   22.4986   36.3060 H   0  0  0  0  0  0  0  0  0  0  0  0
   29.8967   22.3940   37.0488 H   0  0  0  0  0  0  0  0  0  0  0  0
   26.4594   22.1084   37.9643 H   0  0  0  0  0  0  0  0  0  0  0  0
   27.1213   20.6421   37.2313 H   0  0  0  0  0  0  0  0  0  0  0  0
   28.1018   21.6011   38.3406 H   0  0  0  0  0  0  0  0  0  0  0  0
   27.1077   24.7100   32.4052 H   0  0  0  0  0  0  0  0  0  0  0  0
   26.0576   23.3161   32.6698 H   0  0  0  0  0  0  0  0  0  0  0  0
   25.8093   24.8051   33.5922 H   0  0  0  0  0  0  0  0  0  0  0  0
   29.2577   24.4492   33.3248 H   0  0  0  0  0  0  0  0  0  0  0  0
   36.5890   19.3613   36.4951 C   0  0  0  0  0  0  0  0  0  0  0  0
   36.3726   18.2927   36.4220 H   0  0  0  0  0  0  0  0  0  0  0  0
   37.5729   19.5279   36.0382 H   0  0  0  0  0  0  0  0  0  0  0  0
   36.6296   19.6147   37.5616 H   0  0  0  0  0  0  0  0  0  0  0  0
   35.5801   20.1809   35.8215 N   0  0  0  0  0  0  0  0  0  0  0  0
  1  2  2  0  0  0  0
  2  3  1  0  0  0  0
  2  4  1  0  0  0  0
  4 11  2  0  0  0  0
  4 47  1  0  0  0  0
  5  6  1  0  0  0  0
  5 10  2  0  0  0  0
  5 47  1  0  0  0  0
  6  7  2  0  0  0  0
  6 25  1  0  0  0  0
  7  8  1  0  0  0  0
  7 26  1  0  0  0  0
  8  9  2  0  0  0  0
  8 27  1  0  0  0  0
  9 10  1  0  0  0  0
  9 28  1  0  0  0  0
 10 11  1  0  0  0  0
 11 12  1  0  0  0  0
 12 29  1  0  0  0  0
 12 30  1  0  0  0  0
 12 13  1  0  0  0  0
 13 14  1  0  0  0  0
 13 31  1  0  0  0  0
 13 32  1  0  0  0  0
 14 15  1  0  0  0  0
 14 33  1  0  0  0  0
 14 34  1  0  0  0  0
 15 16  1  0  0  0  0
 16 17  1  0  0  0  0
 16 24  2  0  0  0  0
 17 18  2  0  0  0  0
 17 35  1  0  0  0  0
 18 19  1  0  0  0  0
 18 20  1  0  0  0  0
 19 36  1  0  0  0  0
 19 37  1  0  0  0  0
 19 38  1  0  0  0  0
 20 21  1  0  0  0  0
 20 22  2  0  0  0  0
 22 23  1  0  0  0  0
 22 24  1  0  0  0  0
 23 39  1  0  0  0  0
 23 40  1  0  0  0  0
 23 41  1  0  0  0  0
 24 42  1  0  0  0  0
 43 44  1  0  0  0  0
 43 45  1  0  0  0  0
 43 46  1  0  0  0  0
 43 47  1  0  0  0  0
M  END
>  <r_user_dG.exp>
-9.258083

$$$$
53
  PyMOL2.3          3D                             0

 44 46  0  0  0  0  0  0  0  0999 V2000
   36.5943   23.6758   36.1387 O   0  0  0  0  0  0  0  0  0  0  0  0
   36.4004   22.4961   36.4970 C   0  0  0  0  0  0  0  0  0  0  0  0
   37.0808   21.9589   37.4003 O   0  5  0  0  0  0  0  0  0  0  0  0
   35.3310   21.7104   35.8433 C   0  0  0  0  0  0  0  0  0  0  0  0
   34.0955   19.7989   35.6035 C   0  0  0  0  0  0  0  0  0  0  0  0
   33.4899   18.5287   35.7096 C   0  0  0  0  0  0  0  0  0  0  0  0
   32.3759   18.2167   34.9010 C   0  0  0  0  0  0  0  0  0  0  0  0
   31.9224   19.1691   33.9575 C   0  0  0  0  0  0  0  0  0  0  0  0
   32.5328   20.4303   33.8564 C   0  0  0  0  0  0  0  0  0  0  0  0
   33.6185   20.7890   34.6930 C   0  0  0  0  0  0  0  0  0  0  0  0
   34.3806   21.9911   34.8989 C   0  0  0  0  0  0  0  0  0  0  0  0
   34.1219   23.3168   34.2406 C   0  0  0  0  0  0  0  0  0  0  0  0
   33.4166   24.3156   35.1889 C   0  0  0  0  0  0  0  0  0  0  0  0
   32.0593   23.8197   35.6962 C   0  0  0  0  0  0  0  0  0  0  0  0
   31.1482   23.7017   34.6104 O   0  0  0  0  0  0  0  0  0  0  0  0
   29.9342   23.1069   34.8726 C   0  0  0  0  0  0  0  0  0  0  0  0
   29.5686   22.5518   36.1232 C   0  0  0  0  0  0  0  0  0  0  0  0
   28.3113   21.9312   36.3073 C   0  0  0  0  0  0  0  0  0  0  0  0
   27.9870   21.3097   37.6531 C   0  0  0  0  0  0  0  0  0  0  0  0
   27.3910   21.8837   35.2400 C   0  0  0  0  0  0  0  0  0  0  0  0
   25.8497   21.1233   35.4620 Cl  0  0  0  0  0  0  0  0  0  0  0  0
   27.7326   22.4485   33.9919 C   0  0  0  0  0  0  0  0  0  0  0  0
   26.7488   22.4154   32.8316 C   0  0  0  0  0  0  0  0  0  0  0  0
   29.0017   23.0438   33.8143 C   0  0  0  0  0  0  0  0  0  0  0  0
   33.8446   17.8151   36.4341 H   0  0  0  0  0  0  0  0  0  0  0  0
   31.5798   16.7030   35.0645 Cl  0  0  0  0  0  0  0  0  0  0  0  0
   31.0721   18.9310   33.3290 H   0  0  0  0  0  0  0  0  0  0  0  0
   32.1541   21.1584   33.1519 H   0  0  0  0  0  0  0  0  0  0  0  0
   33.4975   23.1562   33.3515 H   0  0  0  0  0  0  0  0  0  0  0  0
   35.0568   23.7479   33.8742 H   0  0  0  0  0  0  0  0  0  0  0  0
   33.3033   25.2770   34.6960 H   0  0  0  0  0  0  0  0  0  0  0  0
   34.0667   24.5001   36.0487 H   0  0  0  0  0  0  0  0  0  0  0  0
   31.6620   24.5273   36.4282 H   0  0  0  0  0  0  0  0  0  0  0  0
   32.2105   22.8720   36.2080 H   0  0  0  0  0  0  0  0  0  0  0  0
   30.2397   22.5745   36.9640 H   0  0  0  0  0  0  0  0  0  0  0  0
   27.0816   21.7528   38.0747 H   0  0  0  0  0  0  0  0  0  0  0  0
   27.8231   20.2352   37.5425 H   0  0  0  0  0  0  0  0  0  0  0  0
   28.7973   21.4514   38.3675 H   0  0  0  0  0  0  0  0  0  0  0  0
   27.1583   22.9062   31.9485 H   0  0  0  0  0  0  0  0  0  0  0  0
   26.5097   21.3841   32.5668 H   0  0  0  0  0  0  0  0  0  0  0  0
   25.8254   22.9287   33.1047 H   0  0  0  0  0  0  0  0  0  0  0  0
   29.2659   23.4611   32.8498 H   0  0  0  0  0  0  0  0  0  0  0  0
   35.1518   20.4018   36.2602 N   0  0  0  0  0  0  0  0  0  0  0  0
   35.7447   19.9973   36.9700 H   0  0  0  0  0  0  0  0  0  0  0  0
  1  2  2  0  0  0  0
  2  3  1  0  0  0  0
  2  4  1  0  0  0  0
  4 11  2  0  0  0  0
  4 43  1  0  0  0  0
  5  6  1  0  0  0  0
  5 10  2  0  0  0  0
  5 43  1  0  0  0  0
  6  7  2  0  0  0  0
  6 25  1  0  0  0  0
  7  8  1  0  0  0  0
  7 26  1  0  0  0  0
  8  9  2  0  0  0  0
  8 27  1  0  0  0  0
  9 10  1  0  0  0  0
  9 28  1  0  0  0  0
 10 11  1  0  0  0  0
 11 12  1  0  0  0  0
 12 29  1  0  0  0  0
 12 30  1  0  0  0  0
 12 13  1  0  0  0  0
 13 14  1  0  0  0  0
 13 31  1  0  0  0  0
 13 32  1  0  0  0  0
 14 15  1  0  0  0  0
 14 33  1  0  0  0  0
 14 34  1  0  0  0  0
 15 16  1  0  0  0  0
 16 17  1  0  0  0  0
 16 24  2  0  0  0  0
 17 18  2  0  0  0  0
 17 35  1  0  0  0  0
 18 19  1  0  0  0  0
 18 20  1  0  0  0  0
 19 36  1  0  0  0  0
 19 37  1  0  0  0  0
 19 38  1  0  0  0  0
 20 21  1  0  0  0  0
 20 22  2  0  0  0  0
 22 23  1  0  0  0  0
 22 24  1  0  0  0  0
 23 39  1  0  0  0  0
 23 40  1  0  0  0  0
 23 41  1  0  0  0  0
 24 42  1  0  0  0  0
 43 44  1  0  0  0  0
M  END
>  <r_user_dG.exp>
-9.964869

$$$$
36
  PyMOL2.3          3D                             0

 44 46  0  0  0  0  0  0  0  0999 V2000
   37.4401   21.4771   37.1144 O   0  0  0  0  0  0  0  0  0  0  0  0
   36.5590   22.1785   36.5578 C   0  0  0  0  0  0  0  0  0  0  0  0
   36.5863   23.4311   36.5781 O   0  5  0  0  0  0  0  0  0  0  0  0
   35.4442   21.4936   35.8637 C   0  0  0  0  0  0  0  0  0  0  0  0
   34.3544   19.6264   35.1274 C   0  0  0  0  0  0  0  0  0  0  0  0
   33.9238   18.3198   34.8178 C   0  0  0  0  0  0  0  0  0  0  0  0
   32.7409   18.1391   34.0615 C   0  0  0  0  0  0  0  0  0  0  0  0
   32.0134   19.2586   33.6174 C   0  0  0  0  0  0  0  0  0  0  0  0
   32.4599   20.5634   33.9211 C   0  0  0  0  0  0  0  0  0  0  0  0
   33.6390   20.7806   34.6901 C   0  0  0  0  0  0  0  0  0  0  0  0
   34.3515   21.9446   35.1620 C   0  0  0  0  0  0  0  0  0  0  0  0
   34.0061   23.3822   34.9240 C   0  0  0  0  0  0  0  0  0  0  0  0
   33.3557   24.0542   36.1445 C   0  0  0  0  0  0  0  0  0  0  0  0
   31.9383   23.5521   36.4445 C   0  0  0  0  0  0  0  0  0  0  0  0
   31.1125   23.8672   35.3261 O   0  0  0  0  0  0  0  0  0  0  0  0
   29.8207   23.3993   35.3213 C   0  0  0  0  0  0  0  0  0  0  0  0
   29.2065   22.6966   36.3883 C   0  0  0  0  0  0  0  0  0  0  0  0
   27.8655   22.2598   36.2880 C   0  0  0  0  0  0  0  0  0  0  0  0
   27.1317   22.5254   35.1089 C   0  0  0  0  0  0  0  0  0  0  0  0
   27.7388   23.2208   34.0494 C   0  0  0  0  0  0  0  0  0  0  0  0
   29.0713   23.6488   34.1570 C   0  0  0  0  0  0  0  0  0  0  0  0
   34.4897   17.4619   35.1524 H   0  0  0  0  0  0  0  0  0  0  0  0
   32.3993   17.1411   33.8278 H   0  0  0  0  0  0  0  0  0  0  0  0
   31.1114   19.1122   33.0319 H   0  0  0  0  0  0  0  0  0  0  0  0
   31.8932   21.4093   33.5712 H   0  0  0  0  0  0  0  0  0  0  0  0
   33.3568   23.4709   34.0499 H   0  0  0  0  0  0  0  0  0  0  0  0
   34.9065   23.9357   34.6625 H   0  0  0  0  0  0  0  0  0  0  0  0
   33.3136   25.1336   35.9728 H   0  0  0  0  0  0  0  0  0  0  0  0
   33.9850   23.9243   37.0245 H   0  0  0  0  0  0  0  0  0  0  0  0
   31.5496   24.0450   37.3424 H   0  0  0  0  0  0  0  0  0  0  0  0
   31.9552   22.4744   36.6381 H   0  0  0  0  0  0  0  0  0  0  0  0
   29.7551   22.4738   37.2961 H   0  0  0  0  0  0  0  0  0  0  0  0
   29.5216   24.1753   33.3305 H   0  0  0  0  0  0  0  0  0  0  0  0
   35.4351   20.1116   35.8435 N   0  0  0  0  0  0  0  0  0  0  0  0
   36.1751   19.5845   36.2932 H   0  0  0  0  0  0  0  0  0  0  0  0
   27.1749   23.4163   33.1511 H   0  0  0  0  0  0  0  0  0  0  0  0
   25.4901   22.0003   34.9285 Cl  0  0  0  0  0  0  0  0  0  0  0  0
   27.2508   21.4876   37.4515 C   0  0  0  0  0  0  0  0  0  0  0  0
   27.7095   21.8170   38.3883 H   0  0  0  0  0  0  0  0  0  0  0  0
   26.1869   21.7197   37.5448 H   0  0  0  0  0  0  0  0  0  0  0  0
   27.4443   19.9707   37.2922 C   0  0  0  0  0  0  0  0  0  0  0  0
   26.9687   19.6071   36.3785 H   0  0  0  0  0  0  0  0  0  0  0  0
   28.5057   19.7112   37.2408 H   0  0  0  0  0  0  0  0  0  0  0  0
   27.0029   19.4399   38.1398 H   0  0  0  0  0  0  0  0  0  0  0  0
  1  2  2  0  0  0  0
  2  3  1  0  0  0  0
  2  4  1  0  0  0  0
  4 11  2  0  0  0  0
  4 34  1  0  0  0  0
  5  6  1  0  0  0  0
  5 10  2  0  0  0  0
  5 34  1  0  0  0  0
  6  7  2  0  0  0  0
  6 22  1  0  0  0  0
  7  8  1  0  0  0  0
  7 23  1  0  0  0  0
  8  9  2  0  0  0  0
  8 24  1  0  0  0  0
  9 10  1  0  0  0  0
  9 25  1  0  0  0  0
 10 11  1  0  0  0  0
 11 12  1  0  0  0  0
 12 26  1  0  0  0  0
 12 27  1  0  0  0  0
 12 13  1  0  0  0  0
 13 14  1  0  0  0  0
 13 28  1  0  0  0  0
 13 29  1  0  0  0  0
 14 15  1  0  0  0  0
 14 30  1  0  0  0  0
 14 31  1  0  0  0  0
 15 16  1  0  0  0  0
 16 17  1  0  0  0  0
 16 21  2  0  0  0  0
 17 18  2  0  0  0  0
 17 32  1  0  0  0  0
 18 19  1  0  0  0  0
 18 38  1  0  0  0  0
 19 20  2  0  0  0  0
 19 37  1  0  0  0  0
 20 21  1  0  0  0  0
 20 36  1  0  0  0  0
 21 33  1  0  0  0  0
 34 35  1  0  0  0  0
 38 39  1  0  0  0  0
 38 40  1  0  0  0  0
 38 41  1  0  0  0  0
 41 42  1  0  0  0  0
 41 43  1  0  0  0  0
 41 44  1  0  0  0  0
M  END
>  <r_user_dG.exp>
-8.179023

$$$$
60
  PyMOL2.3          3D                             0

 43 45  0  0  0  0  0  0  0  0999 V2000
   37.4768   22.1685   37.1221 O   0  0  0  0  0  0  0  0  0  0  0  0
   36.5464   22.6352   36.4173 C   0  0  0  0  0  0  0  0  0  0  0  0
   36.4816   23.8630   36.1645 O   0  5  0  0  0  0  0  0  0  0  0  0
   35.5113   21.7050   35.8759 C   0  0  0  0  0  0  0  0  0  0  0  0
   35.6647   20.0350   36.3799 S   0  0  0  0  0  0  0  0  0  0  0  0
   34.2789   19.5502   35.4313 C   0  0  0  0  0  0  0  0  0  0  0  0
   33.7621   18.2457   35.2956 C   0  0  0  0  0  0  0  0  0  0  0  0
   32.6418   18.0213   34.4797 C   0  0  0  0  0  0  0  0  0  0  0  0
   32.0426   19.0954   33.8156 C   0  0  0  0  0  0  0  0  0  0  0  0
   32.5533   20.4032   33.9722 C   0  0  0  0  0  0  0  0  0  0  0  0
   33.6937   20.6759   34.7729 C   0  0  0  0  0  0  0  0  0  0  0  0
   34.4051   21.9116   35.0497 C   0  0  0  0  0  0  0  0  0  0  0  0
   33.9798   23.2422   34.5030 C   0  0  0  0  0  0  0  0  0  0  0  0
   33.1932   24.0657   35.5363 C   0  0  0  0  0  0  0  0  0  0  0  0
   31.8966   23.3760   36.0031 C   0  0  0  0  0  0  0  0  0  0  0  0
   30.9473   23.3924   34.9450 O   0  0  0  0  0  0  0  0  0  0  0  0
   29.6834   22.9096   35.2111 C   0  0  0  0  0  0  0  0  0  0  0  0
   29.3664   22.1469   36.3593 C   0  0  0  0  0  0  0  0  0  0  0  0
   28.0517   21.7087   36.5914 C   0  0  0  0  0  0  0  0  0  0  0  0
   27.7614   20.8811   37.8343 C   0  0  0  0  0  0  0  0  0  0  0  0
   27.0249   22.0423   35.6801 C   0  0  0  0  0  0  0  0  0  0  0  0
   25.3948   21.5506   35.9889 Cl  0  0  0  0  0  0  0  0  0  0  0  0
   27.3357   22.7871   34.5208 C   0  0  0  0  0  0  0  0  0  0  0  0
   26.2499   23.1639   33.5265 C   0  0  0  0  0  0  0  0  0  0  0  0
   28.6631   23.2000   34.2878 C   0  0  0  0  0  0  0  0  0  0  0  0
   34.2368   17.4224   35.8105 H   0  0  0  0  0  0  0  0  0  0  0  0
   32.2515   17.0213   34.3627 H   0  0  0  0  0  0  0  0  0  0  0  0
   31.1886   18.9289   33.1825 H   0  0  0  0  0  0  0  0  0  0  0  0
   32.0800   21.2099   33.4397 H   0  0  0  0  0  0  0  0  0  0  0  0
   33.3621   23.1138   33.6072 H   0  0  0  0  0  0  0  0  0  0  0  0
   34.8467   23.8100   34.1696 H   0  0  0  0  0  0  0  0  0  0  0  0
   32.9609   25.0571   35.1358 H   0  0  0  0  0  0  0  0  0  0  0  0
   33.8272   24.2320   36.4091 H   0  0  0  0  0  0  0  0  0  0  0  0
   31.4975   23.9184   36.8665 H   0  0  0  0  0  0  0  0  0  0  0  0
   32.1260   22.3495   36.3034 H   0  0  0  0  0  0  0  0  0  0  0  0
   30.1244   21.8852   37.0806 H   0  0  0  0  0  0  0  0  0  0  0  0
   26.9154   21.2911   38.3873 H   0  0  0  0  0  0  0  0  0  0  0  0
   27.5325   19.8498   37.5587 H   0  0  0  0  0  0  0  0  0  0  0  0
   28.6205   20.8657   38.5069 H   0  0  0  0  0  0  0  0  0  0  0  0
   26.6399   23.7954   32.7258 H   0  0  0  0  0  0  0  0  0  0  0  0
   25.8151   22.2719   33.0717 H   0  0  0  0  0  0  0  0  0  0  0  0
   25.4550   23.7175   34.0285 H   0  0  0  0  0  0  0  0  0  0  0  0
   28.9024   23.7761   33.4046 H   0  0  0  0  0  0  0  0  0  0  0  0
  1  2  2  0  0  0  0
  2  3  1  0  0  0  0
  2  4  1  0  0  0  0
  4  5  1  0  0  0  0
  4 12  2  0  0  0  0
  5  6  1  0  0  0  0
  6  7  1  0  0  0  0
  6 11  2  0  0  0  0
  7  8  2  0  0  0  0
  7 26  1  0  0  0  0
  8  9  1  0  0  0  0
  8 27  1  0  0  0  0
  9 10  2  0  0  0  0
  9 28  1  0  0  0  0
 10 11  1  0  0  0  0
 10 29  1  0  0  0  0
 11 12  1  0  0  0  0
 12 13  1  0  0  0  0
 13 30  1  0  0  0  0
 13 31  1  0  0  0  0
 13 14  1  0  0  0  0
 14 15  1  0  0  0  0
 14 32  1  0  0  0  0
 14 33  1  0  0  0  0
 15 16  1  0  0  0  0
 15 34  1  0  0  0  0
 15 35  1  0  0  0  0
 16 17  1  0  0  0  0
 17 18  1  0  0  0  0
 17 25  2  0  0  0  0
 18 19  2  0  0  0  0
 18 36  1  0  0  0  0
 19 20  1  0  0  0  0
 19 21  1  0  0  0  0
 20 37  1  0  0  0  0
 20 38  1  0  0  0  0
 20 39  1  0  0  0  0
 21 22  1  0  0  0  0
 21 23  2  0  0  0  0
 23 24  1  0  0  0  0
 23 25  1  0  0  0  0
 24 40  1  0  0  0  0
 24 41  1  0  0  0  0
 24 42  1  0  0  0  0
 25 43  1  0  0  0  0
M  END
>  <r_user_dG.exp>
-8.915091

$$$$
45
  PyMOL2.3          3D                             0

 48 51  0  0  0  0  0  0  0  0999 V2000
   37.2817   21.5964   36.8178 O   0  0  0  0  0  0  0  0  0  0  0  0
   36.3206   22.2733   36.3915 C   0  0  0  0  0  0  0  0  0  0  0  0
   36.3098   23.5196   36.5042 O   0  5  0  0  0  0  0  0  0  0  0  0
   35.1841   21.5586   35.7569 C   0  0  0  0  0  0  0  0  0  0  0  0
   34.1940   19.6365   35.0723 C   0  0  0  0  0  0  0  0  0  0  0  0
   33.8493   18.3018   34.7768 C   0  0  0  0  0  0  0  0  0  0  0  0
   32.6176   18.0292   34.1382 C   0  0  0  0  0  0  0  0  0  0  0  0
   31.7652   19.1006   33.7916 C   0  0  0  0  0  0  0  0  0  0  0  0
   32.1284   20.4298   34.0906 C   0  0  0  0  0  0  0  0  0  0  0  0
   33.3462   20.7328   34.7460 C   0  0  0  0  0  0  0  0  0  0  0  0
   33.9909   21.9484   35.1878 C   0  0  0  0  0  0  0  0  0  0  0  0
   33.4654   23.3420   35.0319 C   0  0  0  0  0  0  0  0  0  0  0  0
   32.7565   23.8861   36.2878 C   0  0  0  0  0  0  0  0  0  0  0  0
   31.4733   23.1330   36.6845 C   0  0  0  0  0  0  0  0  0  0  0  0
   30.4981   23.2787   35.6548 O   0  0  0  0  0  0  0  0  0  0  0  0
   29.2255   22.7867   35.8688 C   0  0  0  0  0  0  0  0  0  0  0  0
   26.5734   21.8546   36.1988 C   0  0  0  0  0  0  0  0  0  0  0  0
   27.5349   21.5968   37.1889 C   0  0  0  0  0  0  0  0  0  0  0  0
   28.8558   22.0555   37.0296 C   0  0  0  0  0  0  0  0  0  0  0  0
   34.5164   17.4921   35.0438 H   0  0  0  0  0  0  0  0  0  0  0  0
   32.3357   17.0083   33.9150 H   0  0  0  0  0  0  0  0  0  0  0  0
   30.8264   18.8918   33.2947 H   0  0  0  0  0  0  0  0  0  0  0  0
   31.4522   21.2353   33.8199 H   0  0  0  0  0  0  0  0  0  0  0  0
   32.7873   23.3981   34.1819 H   0  0  0  0  0  0  0  0  0  0  0  0
   34.2864   24.0136   34.7799 H   0  0  0  0  0  0  0  0  0  0  0  0
   32.5083   24.9367   36.1235 H   0  0  0  0  0  0  0  0  0  0  0  0
   33.4537   23.8781   37.1218 H   0  0  0  0  0  0  0  0  0  0  0  0
   31.0988   23.5643   37.6180 H   0  0  0  0  0  0  0  0  0  0  0  0
   31.6919   22.0808   36.8734 H   0  0  0  0  0  0  0  0  0  0  0  0
   29.5668   21.8409   37.8147 H   0  0  0  0  0  0  0  0  0  0  0  0
   26.9206   22.5614   35.0376 C   0  0  0  0  0  0  0  0  0  0  0  0
   28.2494   23.0316   34.8657 C   0  0  0  0  0  0  0  0  0  0  0  0
   28.6524   23.7800   33.5967 C   0  0  0  0  0  0  0  0  0  0  0  0
   27.4562   24.3405   32.8087 C   0  0  0  0  0  0  0  0  0  0  0  0
   26.3674   23.2789   32.6413 C   0  0  0  0  0  0  0  0  0  0  0  0
   25.8351   22.8218   34.0013 C   0  0  0  0  0  0  0  0  0  0  0  0
   27.2561   21.0513   38.0774 H   0  0  0  0  0  0  0  0  0  0  0  0
   25.5596   21.5048   36.3356 H   0  0  0  0  0  0  0  0  0  0  0  0
   29.2073   23.0855   32.9653 H   0  0  0  0  0  0  0  0  0  0  0  0
   29.3365   24.5945   33.8329 H   0  0  0  0  0  0  0  0  0  0  0  0
   27.7711   24.7024   31.8296 H   0  0  0  0  0  0  0  0  0  0  0  0
   27.0417   25.1965   33.3404 H   0  0  0  0  0  0  0  0  0  0  0  0
   26.7873   22.4261   32.1050 H   0  0  0  0  0  0  0  0  0  0  0  0
   25.5511   23.6593   32.0249 H   0  0  0  0  0  0  0  0  0  0  0  0
   25.1717   23.5866   34.4034 H   0  0  0  0  0  0  0  0  0  0  0  0
   25.2308   21.9233   33.8736 H   0  0  0  0  0  0  0  0  0  0  0  0
   35.2907   20.1859   35.6745 N   0  0  0  0  0  0  0  0  0  0  0  0
   36.1214   19.7262   36.0237 H   0  0  0  0  0  0  0  0  0  0  0  0
  1  2  2  0  0  0  0
  2  3  1  0  0  0  0
  2  4  1  0  0  0  0
  4 11  2  0  0  0  0
  4 47  1  0  0  0  0
  5  6  1  0  0  0  0
  5 10  2  0  0  0  0
  5 47  1  0  0  0  0
  6  7  2  0  0  0  0
  6 20  1  0  0  0  0
  7  8  1  0  0  0  0
  7 21  1  0  0  0  0
  8  9  2  0  0  0  0
  8 22  1  0  0  0  0
  9 10  1  0  0  0  0
  9 23  1  0  0  0  0
 10 11  1  0  0  0  0
 11 12  1  0  0  0  0
 12 24  1  0  0  0  0
 12 25  1  0  0  0  0
 12 13  1  0  0  0  0
 13 14  1  0  0  0  0
 13 26  1  0  0  0  0
 13 27  1  0  0  0  0
 14 15  1  0  0  0  0
 14 28  1  0  0  0  0
 14 29  1  0  0  0  0
 15 16  1  0  0  0  0
 16 19  2  0  0  0  0
 16 32  1  0  0  0  0
 17 18  2  0  0  0  0
 17 31  1  0  0  0  0
 17 38  1  0  0  0  0
 18 19  1  0  0  0  0
 18 37  1  0  0  0  0
 19 30  1  0  0  0  0
 31 32  2  0  0  0  0
 31 36  1  0  0  0  0
 32 33  1  0  0  0  0
 33 34  1  0  0  0  0
 33 39  1  0  0  0  0
 33 40  1  0  0  0  0
 34 35  1  0  0  0  0
 34 41  1  0  0  0  0
 34 42  1  0  0  0  0
 35 36  1  0  0  0  0
 35 43  1  0  0  0  0
 35 44  1  0  0  0  0
 36 45  1  0  0  0  0
 36 46  1  0  0  0  0
 47 48  1  0  0  0  0
M  END
>  <r_user_dG.exp>
-8.953565

$$$$
42
  PyMOL2.3          3D                             0

 44 47  0  0  0  0  0  0  0  0999 V2000
   37.4214   21.4521   37.0286 O   0  0  0  0  0  0  0  0  0  0  0  0
   36.5099   22.1746   36.5600 C   0  0  0  0  0  0  0  0  0  0  0  0
   36.5648   23.4258   36.6410 O   0  5  0  0  0  0  0  0  0  0  0  0
   35.3587   21.5231   35.8872 C   0  0  0  0  0  0  0  0  0  0  0  0
   34.2873   19.6455   35.1707 C   0  0  0  0  0  0  0  0  0  0  0  0
   33.8777   18.3347   34.8619 C   0  0  0  0  0  0  0  0  0  0  0  0
   32.6745   18.1416   34.1508 C   0  0  0  0  0  0  0  0  0  0  0  0
   31.9084   19.2574   33.7496 C   0  0  0  0  0  0  0  0  0  0  0  0
   32.3341   20.5603   34.0669 C   0  0  0  0  0  0  0  0  0  0  0  0
   33.5359   20.7891   34.7850 C   0  0  0  0  0  0  0  0  0  0  0  0
   34.2117   21.9632   35.2660 C   0  0  0  0  0  0  0  0  0  0  0  0
   33.7424   23.3783   35.1160 C   0  0  0  0  0  0  0  0  0  0  0  0
   33.1238   23.9607   36.4011 C   0  0  0  0  0  0  0  0  0  0  0  0
   31.9240   23.1781   36.9354 C   0  0  0  0  0  0  0  0  0  0  0  0
   30.8754   23.2270   35.9816 O   0  0  0  0  0  0  0  0  0  0  0  0
   29.7263   22.5009   36.2236 C   0  0  0  0  0  0  0  0  0  0  0  0
   27.3197   21.0355   36.5805 C   0  0  0  0  0  0  0  0  0  0  0  0
   28.2826   21.0713   37.6026 C   0  0  0  0  0  0  0  0  0  0  0  0
   29.4730   21.7984   37.4292 C   0  0  0  0  0  0  0  0  0  0  0  0
   34.4644   17.4867   35.1699 H   0  0  0  0  0  0  0  0  0  0  0  0
   32.3281   17.1384   33.9150 H   0  0  0  0  0  0  0  0  0  0  0  0
   30.9774   19.1140   33.2025 H   0  0  0  0  0  0  0  0  0  0  0  0
   31.7389   21.4038   33.7527 H   0  0  0  0  0  0  0  0  0  0  0  0
   33.0061   23.4333   34.3169 H   0  0  0  0  0  0  0  0  0  0  0  0
   34.5655   24.0196   34.7932 H   0  0  0  0  0  0  0  0  0  0  0  0
   32.8199   24.9927   36.2189 H   0  0  0  0  0  0  0  0  0  0  0  0
   33.8849   23.9984   37.1773 H   0  0  0  0  0  0  0  0  0  0  0  0
   31.5863   23.6312   37.8682 H   0  0  0  0  0  0  0  0  0  0  0  0
   32.2094   22.1444   37.1452 H   0  0  0  0  0  0  0  0  0  0  0  0
   30.1681   21.7861   38.2536 H   0  0  0  0  0  0  0  0  0  0  0  0
   27.5475   21.7293   35.3762 C   0  0  0  0  0  0  0  0  0  0  0  0
   28.7506   22.4642   35.1975 C   0  0  0  0  0  0  0  0  0  0  0  0
   28.9611   23.1544   33.9785 C   0  0  0  0  0  0  0  0  0  0  0  0
   27.9971   23.1109   32.9558 C   0  0  0  0  0  0  0  0  0  0  0  0
   26.8111   22.3800   33.1359 C   0  0  0  0  0  0  0  0  0  0  0  0
   26.5804   21.6947   34.3421 C   0  0  0  0  0  0  0  0  0  0  0  0
   29.8599   23.7261   33.8103 H   0  0  0  0  0  0  0  0  0  0  0  0
   28.1867   23.6491   32.0367 H   0  0  0  0  0  0  0  0  0  0  0  0
   26.0722   22.3440   32.3489 H   0  0  0  0  0  0  0  0  0  0  0  0
   25.6664   21.1385   34.4745 H   0  0  0  0  0  0  0  0  0  0  0  0
   28.1191   20.5401   38.5315 H   0  0  0  0  0  0  0  0  0  0  0  0
   26.4147   20.4709   36.7314 H   0  0  0  0  0  0  0  0  0  0  0  0
   35.3899   20.1402   35.8352 N   0  0  0  0  0  0  0  0  0  0  0  0
   36.1563   19.6319   36.2558 H   0  0  0  0  0  0  0  0  0  0  0  0
  1  2  2  0  0  0  0
  2  3  1  0  0  0  0
  2  4  1  0  0  0  0
  4 11  2  0  0  0  0
  4 43  1  0  0  0  0
  5  6  1  0  0  0  0
  5 10  2  0  0  0  0
  5 43  1  0  0  0  0
  6  7  2  0  0  0  0
  6 20  1  0  0  0  0
  7  8  1  0  0  0  0
  7 21  1  0  0  0  0
  8  9  2  0  0  0  0
  8 22  1  0  0  0  0
  9 10  1  0  0  0  0
  9 23  1  0  0  0  0
 10 11  1  0  0  0  0
 11 12  1  0  0  0  0
 12 24  1  0  0  0  0
 12 25  1  0  0  0  0
 12 13  1  0  0  0  0
 13 14  1  0  0  0  0
 13 26  1  0  0  0  0
 13 27  1  0  0  0  0
 14 15  1  0  0  0  0
 14 28  1  0  0  0  0
 14 29  1  0  0  0  0
 15 16  1  0  0  0  0
 16 19  2  0  0  0  0
 16 32  1  0  0  0  0
 17 18  2  0  0  0  0
 17 31  1  0  0  0  0
 17 42  1  0  0  0  0
 18 19  1  0  0  0  0
 18 41  1  0  0  0  0
 19 30  1  0  0  0  0
 31 32  2  0  0  0  0
 31 36  1  0  0  0  0
 32 33  1  0  0  0  0
 33 34  2  0  0  0  0
 33 37  1  0  0  0  0
 34 35  1  0  0  0  0
 34 38  1  0  0  0  0
 35 36  2  0  0  0  0
 35 39  1  0  0  0  0
 36 40  1  0  0  0  0
 43 44  1  0  0  0  0
M  END
>  <r_user_dG.exp>
-8.896747

$$$$
67
  PyMOL2.3          3D                             0

 43 45  0  0  0  0  0  0  0  0999 V2000
   36.6412   23.6367   36.0396 O   0  0  0  0  0  0  0  0  0  0  0  0
   36.4694   22.4726   36.4401 C   0  0  0  0  0  0  0  0  0  0  0  0
   37.1077   22.0469   37.4452 O   0  5  0  0  0  0  0  0  0  0  0  0
   35.4657   21.6218   35.7710 C   0  0  0  0  0  0  0  0  0  0  0  0
   34.3638   19.7124   35.4512 C   0  0  0  0  0  0  0  0  0  0  0  0
   33.9207   18.3845   35.5384 C   0  0  0  0  0  0  0  0  0  0  0  0
   32.8557   17.9800   34.7272 C   0  0  0  0  0  0  0  0  0  0  0  0
   32.2537   18.8963   33.8331 C   0  0  0  0  0  0  0  0  0  0  0  0
   32.7382   20.2271   33.7600 C   0  0  0  0  0  0  0  0  0  0  0  0
   33.8098   20.6645   34.5768 C   0  0  0  0  0  0  0  0  0  0  0  0
   34.5217   21.8886   34.7991 C   0  0  0  0  0  0  0  0  0  0  0  0
   34.2348   23.2087   34.1272 C   0  0  0  0  0  0  0  0  0  0  0  0
   33.5144   24.2241   35.0374 C   0  0  0  0  0  0  0  0  0  0  0  0
   32.1739   23.7328   35.6043 C   0  0  0  0  0  0  0  0  0  0  0  0
   31.2200   23.6347   34.5568 O   0  0  0  0  0  0  0  0  0  0  0  0
   29.9757   23.1138   34.8526 C   0  0  0  0  0  0  0  0  0  0  0  0
   29.6062   22.5909   36.1118 C   0  0  0  0  0  0  0  0  0  0  0  0
   28.3233   22.0356   36.3200 C   0  0  0  0  0  0  0  0  0  0  0  0
   27.9697   21.4432   37.6706 C   0  0  0  0  0  0  0  0  0  0  0  0
   27.3863   22.0182   35.2543 C   0  0  0  0  0  0  0  0  0  0  0  0
   25.8159   21.3200   35.4877 Cl  0  0  0  0  0  0  0  0  0  0  0  0
   27.7370   22.5618   33.9983 C   0  0  0  0  0  0  0  0  0  0  0  0
   26.7583   22.5606   32.8401 C   0  0  0  0  0  0  0  0  0  0  0  0
   29.0285   23.1002   33.8087 C   0  0  0  0  0  0  0  0  0  0  0  0
   34.3953   17.6917   36.2204 H   0  0  0  0  0  0  0  0  0  0  0  0
   32.4757   16.9612   34.7764 H   0  0  0  0  0  0  0  0  0  0  0  0
   31.4332   18.5870   33.2097 H   0  0  0  0  0  0  0  0  0  0  0  0
   32.2794   20.9244   33.0729 H   0  0  0  0  0  0  0  0  0  0  0  0
   33.6236   23.0129   33.2461 H   0  0  0  0  0  0  0  0  0  0  0  0
   35.1516   23.6564   33.7605 H   0  0  0  0  0  0  0  0  0  0  0  0
   33.3600   25.1473   34.4938 H   0  0  0  0  0  0  0  0  0  0  0  0
   34.1708   24.4753   35.8680 H   0  0  0  0  0  0  0  0  0  0  0  0
   31.8099   24.4481   36.3462 H   0  0  0  0  0  0  0  0  0  0  0  0
   32.3205   22.7769   36.1091 H   0  0  0  0  0  0  0  0  0  0  0  0
   30.2938   22.5839   36.9436 H   0  0  0  0  0  0  0  0  0  0  0  0
   27.0165   21.8314   38.0331 H   0  0  0  0  0  0  0  0  0  0  0  0
   27.8863   20.3594   37.5935 H   0  0  0  0  0  0  0  0  0  0  0  0
   28.7349   21.6634   38.4038 H   0  0  0  0  0  0  0  0  0  0  0  0
   27.1745   23.0501   31.9655 H   0  0  0  0  0  0  0  0  0  0  0  0
   26.5004   21.5388   32.5651 H   0  0  0  0  0  0  0  0  0  0  0  0
   25.8442   23.0850   33.1153 H   0  0  0  0  0  0  0  0  0  0  0  0
   29.3028   23.5058   32.8503 H   0  0  0  0  0  0  0  0  0  0  0  0
   35.3844   20.3042   36.1720 O   0  0  0  0  0  0  0  0  0  0  0  0
  1  2  2  0  0  0  0
  2  3  1  0  0  0  0
  2  4  1  0  0  0  0
  4 11  2  0  0  0  0
  4 43  1  0  0  0  0
  5  6  1  0  0  0  0
  5 10  2  0  0  0  0
  5 43  1  0  0  0  0
  6  7  2  0  0  0  0
  6 25  1  0  0  0  0
  7  8  1  0  0  0  0
  7 26  1  0  0  0  0
  8  9  2  0  0  0  0
  8 27  1  0  0  0  0
  9 10  1  0  0  0  0
  9 28  1  0  0  0  0
 10 11  1  0  0  0  0
 11 12  1  0  0  0  0
 12 29  1  0  0  0  0
 12 30  1  0  0  0  0
 12 13  1  0  0  0  0
 13 14  1  0  0  0  0
 13 31  1  0  0  0  0
 13 32  1  0  0  0  0
 14 15  1  0  0  0  0
 14 33  1  0  0  0  0
 14 34  1  0  0  0  0
 15 16  1  0  0  0  0
 16 17  1  0  0  0  0
 16 24  2  0  0  0  0
 17 18  2  0  0  0  0
 17 35  1  0  0  0  0
 18 19  1  0  0  0  0
 18 20  1  0  0  0  0
 19 36  1  0  0  0  0
 19 37  1  0  0  0  0
 19 38  1  0  0  0  0
 20 21  1  0  0  0  0
 20 22  2  0  0  0  0
 22 23  1  0  0  0  0
 22 24  1  0  0  0  0
 23 39  1  0  0  0  0
 23 40  1  0  0  0  0
 23 41  1  0  0  0  0
 24 42  1  0  0  0  0
M  END
>  <r_user_dG.exp>
-7.580925

$$$$
34
  PyMOL2.3          3D                             0

 41 43  0  0  0  0  0  0  0  0999 V2000
   37.6702   21.5296   37.0398 O   0  0  0  0  0  0  0  0  0  0  0  0
   36.6895   22.1502   36.5658 C   0  0  0  0  0  0  0  0  0  0  0  0
   36.5822   23.3879   36.6544 O   0  5  0  0  0  0  0  0  0  0  0  0
   35.6289   21.3526   35.8949 C   0  0  0  0  0  0  0  0  0  0  0  0
   34.6725   19.3774   35.2580 C   0  0  0  0  0  0  0  0  0  0  0  0
   34.3315   18.0339   35.0223 C   0  0  0  0  0  0  0  0  0  0  0  0
   33.1069   17.7318   34.3756 C   0  0  0  0  0  0  0  0  0  0  0  0
   32.2604   18.7769   33.9640 C   0  0  0  0  0  0  0  0  0  0  0  0
   32.6139   20.1190   34.1941 C   0  0  0  0  0  0  0  0  0  0  0  0
   33.8307   20.4529   34.8579 C   0  0  0  0  0  0  0  0  0  0  0  0
   34.4542   21.6896   35.2509 C   0  0  0  0  0  0  0  0  0  0  0  0
   33.8990   23.0589   35.0120 C   0  0  0  0  0  0  0  0  0  0  0  0
   32.9178   23.4702   36.1176 C   0  0  0  0  0  0  0  0  0  0  0  0
   31.9234   24.5352   35.6376 C   0  0  0  0  0  0  0  0  0  0  0  0
   31.0888   23.9866   34.6183 O   0  0  0  0  0  0  0  0  0  0  0  0
   29.8893   23.4079   34.9786 C   0  0  0  0  0  0  0  0  0  0  0  0
   29.5491   23.0157   36.2953 C   0  0  0  0  0  0  0  0  0  0  0  0
   28.2846   22.4583   36.5737 C   0  0  0  0  0  0  0  0  0  0  0  0
   27.3345   22.2936   35.5429 C   0  0  0  0  0  0  0  0  0  0  0  0
   27.6835   22.6527   34.2258 C   0  0  0  0  0  0  0  0  0  0  0  0
   28.9512   23.1986   33.9461 C   0  0  0  0  0  0  0  0  0  0  0  0
   34.9921   17.2450   35.3340 H   0  0  0  0  0  0  0  0  0  0  0  0
   32.8327   16.7024   34.2004 H   0  0  0  0  0  0  0  0  0  0  0  0
   31.3253   18.5419   33.4619 H   0  0  0  0  0  0  0  0  0  0  0  0
   31.9488   20.9067   33.8695 H   0  0  0  0  0  0  0  0  0  0  0  0
   33.4037   23.0772   34.0384 H   0  0  0  0  0  0  0  0  0  0  0  0
   34.6960   23.8025   34.9415 H   0  0  0  0  0  0  0  0  0  0  0  0
   33.4717   23.8230   36.9871 H   0  0  0  0  0  0  0  0  0  0  0  0
   32.3601   22.5948   36.4522 H   0  0  0  0  0  0  0  0  0  0  0  0
   32.4727   25.3774   35.2114 H   0  0  0  0  0  0  0  0  0  0  0  0
   31.3529   24.9470   36.4693 H   0  0  0  0  0  0  0  0  0  0  0  0
   30.2473   23.1313   37.1129 H   0  0  0  0  0  0  0  0  0  0  0  0
   29.1989   23.4768   32.9319 H   0  0  0  0  0  0  0  0  0  0  0  0
   35.7637   19.9749   35.8696 N   0  0  0  0  0  0  0  0  0  0  0  0
   36.5783   19.5184   36.2718 H   0  0  0  0  0  0  0  0  0  0  0  0
   26.9667   22.5232   33.4299 H   0  0  0  0  0  0  0  0  0  0  0  0
   28.0511   22.1749   37.5890 H   0  0  0  0  0  0  0  0  0  0  0  0
   25.9473   21.7401   35.8300 C   0  0  0  0  0  0  0  0  0  0  0  0
   25.7353   20.6644   35.0694 F   0  0  0  0  0  0  0  0  0  0  0  0
   25.8078   21.3984   37.1126 F   0  0  0  0  0  0  0  0  0  0  0  0
   25.0393   22.6713   35.5335 F   0  0  0  0  0  0  0  0  0  0  0  0
  1  2  2  0  0  0  0
  2  3  1  0  0  0  0
  2  4  1  0  0  0  0
  4 11  2  0  0  0  0
  4 34  1  0  0  0  0
  5  6  1  0  0  0  0
  5 10  2  0  0  0  0
  5 34  1  0  0  0  0
  6  7  2  0  0  0  0
  6 22  1  0  0  0  0
  7  8  1  0  0  0  0
  7 23  1  0  0  0  0
  8  9  2  0  0  0  0
  8 24  1  0  0  0  0
  9 10  1  0  0  0  0
  9 25  1  0  0  0  0
 10 11  1  0  0  0  0
 11 12  1  0  0  0  0
 12 26  1  0  0  0  0
 12 27  1  0  0  0  0
 12 13  1  0  0  0  0
 13 14  1  0  0  0  0
 13 28  1  0  0  0  0
 13 29  1  0  0  0  0
 14 15  1  0  0  0  0
 14 30  1  0  0  0  0
 14 31  1  0  0  0  0
 15 16  1  0  0  0  0
 16 17  1  0  0  0  0
 16 21  2  0  0  0  0
 17 18  2  0  0  0  0
 17 32  1  0  0  0  0
 18 19  1  0  0  0  0
 18 37  1  0  0  0  0
 19 20  2  0  0  0  0
 19 38  1  0  0  0  0
 20 21  1  0  0  0  0
 20 36  1  0  0  0  0
 21 33  1  0  0  0  0
 34 35  1  0  0  0  0
 38 39  1  0  0  0  0
 38 40  1  0  0  0  0
 38 41  1  0  0  0  0
M  END
>  <r_user_dG.exp>
-6.869192

$$$$
43
  PyMOL2.3          3D                             0

 44 47  0  0  0  0  0  0  0  0999 V2000
   36.6332   23.5702   36.1790 O   0  0  0  0  0  0  0  0  0  0  0  0
   36.4680   22.3648   36.4730 C   0  0  0  0  0  0  0  0  0  0  0  0
   37.1605   21.7928   37.3481 O   0  5  0  0  0  0  0  0  0  0  0  0
   35.4128   21.5990   35.7737 C   0  0  0  0  0  0  0  0  0  0  0  0
   34.2626   19.6676   35.3602 C   0  0  0  0  0  0  0  0  0  0  0  0
   33.7580   18.3545   35.3181 C   0  0  0  0  0  0  0  0  0  0  0  0
   32.6729   18.0615   34.4718 C   0  0  0  0  0  0  0  0  0  0  0  0
   32.1050   19.0761   33.6817 C   0  0  0  0  0  0  0  0  0  0  0  0
   32.6207   20.3873   33.7300 C   0  0  0  0  0  0  0  0  0  0  0  0
   33.7153   20.7185   34.5667 C   0  0  0  0  0  0  0  0  0  0  0  0
   34.4498   21.9287   34.8430 C   0  0  0  0  0  0  0  0  0  0  0  0
   34.1891   23.2865   34.2478 C   0  0  0  0  0  0  0  0  0  0  0  0
   33.5237   24.2651   35.2359 C   0  0  0  0  0  0  0  0  0  0  0  0
   32.1948   23.7606   35.8144 C   0  0  0  0  0  0  0  0  0  0  0  0
   31.1979   23.8033   34.8009 O   0  0  0  0  0  0  0  0  0  0  0  0
   29.9335   23.3603   35.1199 C   0  0  0  0  0  0  0  0  0  0  0  0
   27.5797   23.2404   34.4457 C   0  0  0  0  0  0  0  0  0  0  0  0
   28.9049   23.6496   34.2021 C   0  0  0  0  0  0  0  0  0  0  0  0
   34.1982   17.5838   35.9320 H   0  0  0  0  0  0  0  0  0  0  0  0
   32.2774   17.0576   34.4335 H   0  0  0  0  0  0  0  0  0  0  0  0
   31.2700   18.8504   33.0363 H   0  0  0  0  0  0  0  0  0  0  0  0
   32.1721   21.1598   33.1206 H   0  0  0  0  0  0  0  0  0  0  0  0
   33.5613   23.1854   33.3632 H   0  0  0  0  0  0  0  0  0  0  0  0
   35.1259   23.7197   33.8940 H   0  0  0  0  0  0  0  0  0  0  0  0
   33.3692   25.2300   34.7542 H   0  0  0  0  0  0  0  0  0  0  0  0
   34.2095   24.4541   36.0606 H   0  0  0  0  0  0  0  0  0  0  0  0
   31.8904   24.3990   36.6432 H   0  0  0  0  0  0  0  0  0  0  0  0
   32.3258   22.7518   36.2076 H   0  0  0  0  0  0  0  0  0  0  0  0
   29.1346   24.2010   33.3027 H   0  0  0  0  0  0  0  0  0  0  0  0
   29.6163   22.6339   36.2951 C   0  0  0  0  0  0  0  0  0  0  0  0
   26.8048   23.4791   33.7293 H   0  0  0  0  0  0  0  0  0  0  0  0
   28.2965   22.1980   36.5329 C   0  0  0  0  0  0  0  0  0  0  0  0
   27.2688   22.5134   35.6110 C   0  0  0  0  0  0  0  0  0  0  0  0
   25.9462   22.0911   35.8596 C   0  0  0  0  0  0  0  0  0  0  0  0
   25.6490   21.3419   37.0162 C   0  0  0  0  0  0  0  0  0  0  0  0
   26.6758   21.0138   37.9267 C   0  0  0  0  0  0  0  0  0  0  0  0
   27.9970   21.4423   37.6857 C   0  0  0  0  0  0  0  0  0  0  0  0
   25.1551   22.3317   35.1644 H   0  0  0  0  0  0  0  0  0  0  0  0
   24.6347   21.0215   37.2082 H   0  0  0  0  0  0  0  0  0  0  0  0
   26.4459   20.4359   38.8123 H   0  0  0  0  0  0  0  0  0  0  0  0
   28.7732   21.1906   38.3922 H   0  0  0  0  0  0  0  0  0  0  0  0
   30.3712   22.3842   37.0246 H   0  0  0  0  0  0  0  0  0  0  0  0
   35.2888   20.2536   36.0777 N   0  0  0  0  0  0  0  0  0  0  0  0
   35.9052   19.8254   36.7551 H   0  0  0  0  0  0  0  0  0  0  0  0
  1  2  2  0  0  0  0
  2  3  1  0  0  0  0
  2  4  1  0  0  0  0
  4 11  2  0  0  0  0
  4 43  1  0  0  0  0
  5  6  1  0  0  0  0
  5 10  2  0  0  0  0
  5 43  1  0  0  0  0
  6  7  2  0  0  0  0
  6 19  1  0  0  0  0
  7  8  1  0  0  0  0
  7 20  1  0  0  0  0
  8  9  2  0  0  0  0
  8 21  1  0  0  0  0
  9 10  1  0  0  0  0
  9 22  1  0  0  0  0
 10 11  1  0  0  0  0
 11 12  1  0  0  0  0
 12 23  1  0  0  0  0
 12 24  1  0  0  0  0
 12 13  1  0  0  0  0
 13 14  1  0  0  0  0
 13 25  1  0  0  0  0
 13 26  1  0  0  0  0
 14 15  1  0  0  0  0
 14 27  1  0  0  0  0
 14 28  1  0  0  0  0
 15 16  1  0  0  0  0
 16 18  2  0  0  0  0
 16 30  1  0  0  0  0
 17 18  1  0  0  0  0
 17 31  1  0  0  0  0
 17 33  2  0  0  0  0
 18 29  1  0  0  0  0
 30 32  2  0  0  0  0
 30 42  1  0  0  0  0
 32 33  1  0  0  0  0
 32 37  1  0  0  0  0
 33 34  1  0  0  0  0
 34 35  2  0  0  0  0
 34 38  1  0  0  0  0
 35 36  1  0  0  0  0
 35 39  1  0  0  0  0
 36 37  2  0  0  0  0
 36 40  1  0  0  0  0
 37 41  1  0  0  0  0
 43 44  1  0  0  0  0
M  END
>  <r_user_dG.exp>
-7.034696

$$$$
