1b
  PyMOL2.3          3D                             0

 52 54  0  0  1  0  0  0  0  0999 V2000
   35.1425   16.8869   40.2061 N   0  0  0  0  0  0  0  0  0  0  0  0
   34.7264   18.2989   40.0967 C   0  0  2  0  0  0  0  0  0  0  0  0
   34.3375   15.8827   40.6317 C   0  0  0  0  0  0  0  0  0  0  0  0
   33.2002   16.0986   41.0537 O   0  0  0  0  0  0  0  0  0  0  0  0
   33.3746   18.5165   39.3743 C   0  0  0  0  0  0  0  0  0  0  0  0
   33.1445   17.9460   38.3069 O   0  0  0  0  0  0  0  0  0  0  0  0
   35.8756   18.9860   39.3453 C   0  0  0  0  0  0  0  0  0  0  0  0
   34.8373   14.4248   40.6314 C   0  0  2  0  0  0  0  0  0  0  0  0
   32.4977   19.3382   39.9622 N   0  0  0  0  0  0  0  0  0  0  0  0
   37.1022   18.1317   39.5968 C   0  0  0  0  0  0  0  0  0  0  0  0
   33.8085   13.5631   40.0249 N   0  3  0  0  0  0  0  0  0  0  0  0
   35.1657   13.9231   42.0568 C   0  0  0  0  0  0  0  0  0  0  0  0
   31.1529   19.6497   39.4963 C   0  0  0  0  0  0  0  0  0  0  0  0
   36.5520   16.7296   39.8300 C   0  0  0  0  0  0  0  0  0  0  0  0
   36.4274   14.5146   42.6609 C   0  0  0  0  0  0  0  0  0  0  0  0
   30.0558   18.8865   40.2191 C   0  0  0  0  0  0  0  0  0  0  0  0
   36.3390   15.5056   43.6555 C   0  0  0  0  0  0  0  0  0  0  0  0
   29.5893   17.6527   39.7194 C   0  0  0  0  0  0  0  0  0  0  0  0
   37.4956   16.1046   44.1775 C   0  0  0  0  0  0  0  0  0  0  0  0
   28.5437   16.9728   40.3777 C   0  0  0  0  0  0  0  0  0  0  0  0
   38.7609   15.6982   43.7191 C   0  0  0  0  0  0  0  0  0  0  0  0
   27.9655   17.5196   41.5412 C   0  0  0  0  0  0  0  0  0  0  0  0
   38.8630   14.6784   42.7541 C   0  0  0  0  0  0  0  0  0  0  0  0
   28.4481   18.7369   42.0603 C   0  0  0  0  0  0  0  0  0  0  0  0
   37.6988   14.0875   42.2237 C   0  0  0  0  0  0  0  0  0  0  0  0
   29.4846   19.4194   41.3942 C   0  0  0  0  0  0  0  0  0  0  0  0
   34.6669   18.7010   41.1077 H   0  0  0  0  0  0  0  0  0  0  0  0
   35.6767   19.0298   38.2729 H   0  0  0  0  0  0  0  0  0  0  0  0
   36.0317   19.9998   39.6969 H   0  0  0  0  0  0  0  0  0  0  0  0
   35.7173   14.3079   40.0009 H   0  0  0  0  0  0  0  0  0  0  0  0
   32.8042   19.8128   40.8114 H   0  0  0  0  0  0  0  0  0  0  0  0
   37.8244   18.1729   38.7799 H   0  0  0  0  0  0  0  0  0  0  0  0
   37.6091   18.4764   40.4993 H   0  0  0  0  0  0  0  0  0  0  0  0
   34.1123   12.6013   40.0302 H   0  0  0  0  0  0  0  0  0  0  0  0
   32.9525   13.6577   40.5588 H   0  0  0  0  0  0  0  0  0  0  0  0
   33.6354   13.8645   39.0774 H   0  0  0  0  0  0  0  0  0  0  0  0
   34.3206   14.1066   42.7238 H   0  0  0  0  0  0  0  0  0  0  0  0
   35.2932   12.8400   42.0445 H   0  0  0  0  0  0  0  0  0  0  0  0
   30.9852   20.7078   39.6873 H   0  0  0  0  0  0  0  0  0  0  0  0
   31.0603   19.5076   38.4176 H   0  0  0  0  0  0  0  0  0  0  0  0
   37.1344   16.2214   40.5970 H   0  0  0  0  0  0  0  0  0  0  0  0
   36.6196   16.1492   38.9090 H   0  0  0  0  0  0  0  0  0  0  0  0
   35.3843   15.8036   44.0421 H   0  0  0  0  0  0  0  0  0  0  0  0
   30.0330   17.2268   38.8300 H   0  0  0  0  0  0  0  0  0  0  0  0
   37.3987   16.8627   44.9397 H   0  0  0  0  0  0  0  0  0  0  0  0
   28.1856   16.0267   39.9950 H   0  0  0  0  0  0  0  0  0  0  0  0
   39.6539   16.1523   44.1218 H   0  0  0  0  0  0  0  0  0  0  0  0
   39.8373   14.3508   42.4206 H   0  0  0  0  0  0  0  0  0  0  0  0
   27.8084   19.3751   43.5327 Cl  0  0  0  0  0  0  0  0  0  0  0  0
   37.7892   13.3163   41.4722 H   0  0  0  0  0  0  0  0  0  0  0  0
   29.8547   20.3469   41.8023 H   0  0  0  0  0  0  0  0  0  0  0  0
   27.1669   16.9935   42.0458 H   0  0  0  0  0  0  0  0  0  0  0  0
  1  2  1  0  0  0  0
  1 14  1  0  0  0  0
  1  3  1  0  0  0  0
  2  5  1  0  0  0  0
  2  7  1  0  0  0  0
  2 27  1  0  0  0  0
  3  8  1  0  0  0  0
  3  4  2  0  0  0  0
  5  6  2  0  0  0  0
  5  9  1  0  0  0  0
  7 10  1  0  0  0  0
  7 28  1  0  0  0  0
  7 29  1  0  0  0  0
  8 11  1  0  0  0  0
  8 12  1  0  0  0  0
  8 30  1  0  0  0  0
  9 13  1  0  0  0  0
  9 31  1  0  0  0  0
 10 14  1  0  0  0  0
 10 32  1  0  0  0  0
 10 33  1  0  0  0  0
 11 34  1  0  0  0  0
 11 35  1  0  0  0  0
 11 36  1  0  0  0  0
 12 15  1  0  0  0  0
 12 37  1  0  0  0  0
 12 38  1  0  0  0  0
 13 16  1  0  0  0  0
 13 39  1  0  0  0  0
 13 40  1  0  0  0  0
 14 41  1  0  0  0  0
 14 42  1  0  0  0  0
 15 17  1  0  0  0  0
 15 25  2  0  0  0  0
 16 18  1  0  0  0  0
 16 26  2  0  0  0  0
 17 19  2  0  0  0  0
 17 43  1  0  0  0  0
 18 20  2  0  0  0  0
 18 44  1  0  0  0  0
 19 21  1  0  0  0  0
 19 45  1  0  0  0  0
 20 22  1  0  0  0  0
 20 46  1  0  0  0  0
 21 23  2  0  0  0  0
 21 47  1  0  0  0  0
 22 24  2  0  0  0  0
 22 52  1  0  0  0  0
 23 25  1  0  0  0  0
 23 48  1  0  0  0  0
 24 26  1  0  0  0  0
 24 49  1  0  0  0  0
 25 50  1  0  0  0  0
 26 51  1  0  0  0  0
M  END
>  <r_user_dG.exp>
-8.460000

$$$$
1d
  PyMOL2.3          3D                             0

 52 54  0  0  1  0  0  0  0  0999 V2000
   35.1500   16.8847   40.2065 N   0  0  0  0  0  0  0  0  0  0  0  0
   34.7357   18.2971   40.0962 C   0  0  2  0  0  0  0  0  0  0  0  0
   34.3430   15.8816   40.6310 C   0  0  0  0  0  0  0  0  0  0  0  0
   33.2055   16.0989   41.0515 O   0  0  0  0  0  0  0  0  0  0  0  0
   33.3866   18.5150   39.3699 C   0  0  0  0  0  0  0  0  0  0  0  0
   33.1604   17.9452   38.3011 O   0  0  0  0  0  0  0  0  0  0  0  0
   35.8868   18.9832   39.3463 C   0  0  0  0  0  0  0  0  0  0  0  0
   34.8407   14.4230   40.6311 C   0  0  2  0  0  0  0  0  0  0  0  0
   32.5080   19.3364   39.9555 N   0  0  0  0  0  0  0  0  0  0  0  0
   37.1119   18.1279   39.6006 C   0  0  0  0  0  0  0  0  0  0  0  0
   33.8102   13.5623   40.0258 N   0  3  0  0  0  0  0  0  0  0  0  0
   35.1694   13.9212   42.0564 C   0  0  0  0  0  0  0  0  0  0  0  0
   31.1659   19.6490   39.4832 C   0  0  0  0  0  0  0  0  0  0  0  0
   36.5599   16.7262   39.8324 C   0  0  0  0  0  0  0  0  0  0  0  0
   36.4298   14.5153   42.6606 C   0  0  0  0  0  0  0  0  0  0  0  0
   30.0659   18.8838   40.1982 C   0  0  0  0  0  0  0  0  0  0  0  0
   37.7024   14.0864   42.2281 C   0  0  0  0  0  0  0  0  0  0  0  0
   29.6005   17.6521   39.6923 C   0  0  0  0  0  0  0  0  0  0  0  0
   38.8653   14.6752   42.7633 C   0  0  0  0  0  0  0  0  0  0  0  0
   28.5542   16.9691   40.3460 C   0  0  0  0  0  0  0  0  0  0  0  0
   38.7609   15.6946   43.7288 C   0  0  0  0  0  0  0  0  0  0  0  0
   27.9743   17.5107   41.5108 C   0  0  0  0  0  0  0  0  0  0  0  0
   37.4943   16.1020   44.1832 C   0  0  0  0  0  0  0  0  0  0  0  0
   28.4564   18.7258   42.0352 C   0  0  0  0  0  0  0  0  0  0  0  0
   36.3389   15.5050   43.6564 C   0  0  0  0  0  0  0  0  0  0  0  0
   29.4927   19.4122   41.3737 C   0  0  0  0  0  0  0  0  0  0  0  0
   34.6739   18.6997   41.1069 H   0  0  0  0  0  0  0  0  0  0  0  0
   35.6900   19.0258   38.2735 H   0  0  0  0  0  0  0  0  0  0  0  0
   36.0426   19.9977   39.6964 H   0  0  0  0  0  0  0  0  0  0  0  0
   35.7202   14.3049   40.0002 H   0  0  0  0  0  0  0  0  0  0  0  0
   32.8102   19.8094   40.8069 H   0  0  0  0  0  0  0  0  0  0  0  0
   37.8359   18.1685   38.7853 H   0  0  0  0  0  0  0  0  0  0  0  0
   37.6170   18.4720   40.5043 H   0  0  0  0  0  0  0  0  0  0  0  0
   34.1126   12.6000   40.0316 H   0  0  0  0  0  0  0  0  0  0  0  0
   32.9547   13.6586   40.5603 H   0  0  0  0  0  0  0  0  0  0  0  0
   33.6369   13.8633   39.0783 H   0  0  0  0  0  0  0  0  0  0  0  0
   34.3238   14.1034   42.7232 H   0  0  0  0  0  0  0  0  0  0  0  0
   35.2987   12.8383   42.0440 H   0  0  0  0  0  0  0  0  0  0  0  0
   30.9968   20.7059   39.6791 H   0  0  0  0  0  0  0  0  0  0  0  0
   31.0785   19.5111   38.4037 H   0  0  0  0  0  0  0  0  0  0  0  0
   37.1408   16.2171   40.5999 H   0  0  0  0  0  0  0  0  0  0  0  0
   36.6281   16.1461   38.9112 H   0  0  0  0  0  0  0  0  0  0  0  0
   37.7945   13.3114   41.4807 H   0  0  0  0  0  0  0  0  0  0  0  0
   30.0461   17.2300   38.8022 H   0  0  0  0  0  0  0  0  0  0  0  0
   39.8405   14.3467   42.4334 H   0  0  0  0  0  0  0  0  0  0  0  0
   28.1976   16.0241   39.9592 H   0  0  0  0  0  0  0  0  0  0  0  0
   39.6525   16.1522   44.1299 H   0  0  0  0  0  0  0  0  0  0  0  0
   37.3953   16.8641   44.9412 H   0  0  0  0  0  0  0  0  0  0  0  0
   27.6928   19.4854   43.8299 I   0  0  0  0  0  0  0  0  0  0  0  0
   35.3833   15.8039   44.0397 H   0  0  0  0  0  0  0  0  0  0  0  0
   29.8631   20.3374   41.7868 H   0  0  0  0  0  0  0  0  0  0  0  0
   27.1768   16.9808   42.0133 H   0  0  0  0  0  0  0  0  0  0  0  0
  1  2  1  0  0  0  0
  1 14  1  0  0  0  0
  1  3  1  0  0  0  0
  2  5  1  0  0  0  0
  2  7  1  0  0  0  0
  2 27  1  0  0  0  0
  3  8  1  0  0  0  0
  3  4  2  0  0  0  0
  5  6  2  0  0  0  0
  5  9  1  0  0  0  0
  7 10  1  0  0  0  0
  7 28  1  0  0  0  0
  7 29  1  0  0  0  0
  8 11  1  0  0  0  0
  8 12  1  0  0  0  0
  8 30  1  0  0  0  0
  9 13  1  0  0  0  0
  9 31  1  0  0  0  0
 10 14  1  0  0  0  0
 10 32  1  0  0  0  0
 10 33  1  0  0  0  0
 11 34  1  0  0  0  0
 11 35  1  0  0  0  0
 11 36  1  0  0  0  0
 12 15  1  0  0  0  0
 12 37  1  0  0  0  0
 12 38  1  0  0  0  0
 13 16  1  0  0  0  0
 13 39  1  0  0  0  0
 13 40  1  0  0  0  0
 14 41  1  0  0  0  0
 14 42  1  0  0  0  0
 15 17  1  0  0  0  0
 15 25  2  0  0  0  0
 16 18  1  0  0  0  0
 16 26  2  0  0  0  0
 17 19  2  0  0  0  0
 17 43  1  0  0  0  0
 18 20  2  0  0  0  0
 18 44  1  0  0  0  0
 19 21  1  0  0  0  0
 19 45  1  0  0  0  0
 20 22  1  0  0  0  0
 20 46  1  0  0  0  0
 21 23  2  0  0  0  0
 21 47  1  0  0  0  0
 22 24  2  0  0  0  0
 22 52  1  0  0  0  0
 23 25  1  0  0  0  0
 23 48  1  0  0  0  0
 24 26  1  0  0  0  0
 24 49  1  0  0  0  0
 25 50  1  0  0  0  0
 26 51  1  0  0  0  0
M  END
>  <r_user_dG.exp>
-8.250000

$$$$
3b
  PyMOL2.3          3D                             0

 58 60  0  0  1  0  0  0  0  0999 V2000
   35.1582   16.9265   40.1874 N   0  0  0  0  0  0  0  0  0  0  0  0
   34.7634   18.3450   40.0791 C   0  0  2  0  0  0  0  0  0  0  0  0
   34.3382   15.9314   40.6064 C   0  0  0  0  0  0  0  0  0  0  0  0
   33.2029   16.1576   41.0278 O   0  0  0  0  0  0  0  0  0  0  0  0
   33.4259   18.5793   39.3365 C   0  0  0  0  0  0  0  0  0  0  0  0
   33.2317   18.0540   38.2388 O   0  0  0  0  0  0  0  0  0  0  0  0
   35.9310   19.0169   39.3404 C   0  0  0  0  0  0  0  0  0  0  0  0
   34.8197   14.4675   40.6003 C   0  0  2  0  0  0  0  0  0  0  0  0
   32.5230   19.3625   39.9396 N   0  0  0  0  0  0  0  0  0  0  0  0
   37.1417   18.1428   39.5958 C   0  0  0  0  0  0  0  0  0  0  0  0
   33.7817   13.6229   39.9853 N   0  3  0  0  0  0  0  0  0  0  0  0
   35.1379   13.9538   42.0243 C   0  0  0  0  0  0  0  0  0  0  0  0
   31.1764   19.6621   39.4659 C   0  0  0  0  0  0  0  0  0  0  0  0
   36.5677   16.7494   39.8200 C   0  0  0  0  0  0  0  0  0  0  0  0
   36.4062   14.5239   42.6365 C   0  0  0  0  0  0  0  0  0  0  0  0
   30.1346   18.6409   39.8922 C   0  0  0  0  0  0  0  0  0  0  0  0
   36.3290   15.5014   43.6459 C   0  0  0  0  0  0  0  0  0  0  0  0
   29.3333   18.8512   41.0388 C   0  0  0  0  0  0  0  0  0  0  0  0
   37.4918   16.0829   44.1742 C   0  0  0  0  0  0  0  0  0  0  0  0
   28.3820   17.8776   41.4317 C   0  0  0  0  0  0  0  0  0  0  0  0
   38.7527   15.6711   43.7079 C   0  0  0  0  0  0  0  0  0  0  0  0
   28.2206   16.7181   40.6458 C   0  0  0  0  0  0  0  0  0  0  0  0
   38.8438   14.6635   42.7287 C   0  0  0  0  0  0  0  0  0  0  0  0
   29.0149   16.5082   39.5053 C   0  0  0  0  0  0  0  0  0  0  0  0
   37.6733   14.0907   42.1921 C   0  0  0  0  0  0  0  0  0  0  0  0
   29.9740   17.4651   39.1323 C   0  0  0  0  0  0  0  0  0  0  0  0
   34.6950   18.7457   41.0903 H   0  0  0  0  0  0  0  0  0  0  0  0
   35.7429   19.0697   38.2665 H   0  0  0  0  0  0  0  0  0  0  0  0
   36.1025   20.0261   39.6969 H   0  0  0  0  0  0  0  0  0  0  0  0
   35.6996   14.3419   39.9715 H   0  0  0  0  0  0  0  0  0  0  0  0
   32.8047   19.8083   40.8120 H   0  0  0  0  0  0  0  0  0  0  0  0
   37.8684   18.1755   38.7828 H   0  0  0  0  0  0  0  0  0  0  0  0
   37.6486   18.4760   40.5026 H   0  0  0  0  0  0  0  0  0  0  0  0
   34.0742   12.6577   39.9821 H   0  0  0  0  0  0  0  0  0  0  0  0
   32.9263   13.7222   40.5196 H   0  0  0  0  0  0  0  0  0  0  0  0
   33.6124   13.9350   39.0406 H   0  0  0  0  0  0  0  0  0  0  0  0
   34.2930   14.1452   42.6894 H   0  0  0  0  0  0  0  0  0  0  0  0
   35.2502   12.8690   42.0063 H   0  0  0  0  0  0  0  0  0  0  0  0
   30.8884   20.6420   39.8470 H   0  0  0  0  0  0  0  0  0  0  0  0
   31.1691   19.7349   38.3773 H   0  0  0  0  0  0  0  0  0  0  0  0
   37.1374   16.2301   40.5887 H   0  0  0  0  0  0  0  0  0  0  0  0
   36.6326   16.1718   38.8972 H   0  0  0  0  0  0  0  0  0  0  0  0
   35.3781   15.8027   44.0389 H   0  0  0  0  0  0  0  0  0  0  0  0
   29.4810   19.7454   41.6244 H   0  0  0  0  0  0  0  0  0  0  0  0
   37.4032   16.8322   44.9465 H   0  0  0  0  0  0  0  0  0  0  0  0
   39.6501   16.1120   44.1149 H   0  0  0  0  0  0  0  0  0  0  0  0
   39.8144   14.3320   42.3883 H   0  0  0  0  0  0  0  0  0  0  0  0
   28.8953   15.6012   38.9303 H   0  0  0  0  0  0  0  0  0  0  0  0
   37.7554   13.3296   41.4293 H   0  0  0  0  0  0  0  0  0  0  0  0
   30.5953   17.2932   38.2649 H   0  0  0  0  0  0  0  0  0  0  0  0
   27.5005   15.9629   40.9308 H   0  0  0  0  0  0  0  0  0  0  0  0
   27.5677   17.9681   42.7178 C   0  0  0  0  0  0  0  0  0  0  0  0
   27.8058   17.0751   43.2909 H   0  0  0  0  0  0  0  0  0  0  0  0
   26.5096   17.8773   42.4701 H   0  0  0  0  0  0  0  0  0  0  0  0
   27.7972   19.1999   43.6110 C   0  0  0  0  0  0  0  0  0  0  0  0
   27.3478   20.0760   43.1871 H   0  0  0  0  0  0  0  0  0  0  0  0
   27.3263   19.0803   44.5823 H   0  0  0  0  0  0  0  0  0  0  0  0
   28.8465   19.4242   43.7843 H   0  0  0  0  0  0  0  0  0  0  0  0
  1  2  1  0  0  0  0
  1 14  1  0  0  0  0
  1  3  1  0  0  0  0
  2  5  1  0  0  0  0
  2  7  1  0  0  0  0
  2 27  1  0  0  0  0
  3  8  1  0  0  0  0
  3  4  2  0  0  0  0
  5  6  2  0  0  0  0
  5  9  1  0  0  0  0
  7 10  1  0  0  0  0
  7 28  1  0  0  0  0
  7 29  1  0  0  0  0
  8 11  1  0  0  0  0
  8 12  1  0  0  0  0
  8 30  1  0  0  0  0
  9 13  1  0  0  0  0
  9 31  1  0  0  0  0
 10 14  1  0  0  0  0
 10 32  1  0  0  0  0
 10 33  1  0  0  0  0
 11 34  1  0  0  0  0
 11 35  1  0  0  0  0
 11 36  1  0  0  0  0
 12 15  1  0  0  0  0
 12 37  1  0  0  0  0
 12 38  1  0  0  0  0
 13 16  1  0  0  0  0
 13 39  1  0  0  0  0
 13 40  1  0  0  0  0
 14 41  1  0  0  0  0
 14 42  1  0  0  0  0
 15 17  1  0  0  0  0
 15 25  2  0  0  0  0
 16 18  1  0  0  0  0
 16 26  2  0  0  0  0
 17 19  2  0  0  0  0
 17 43  1  0  0  0  0
 18 20  2  0  0  0  0
 18 44  1  0  0  0  0
 19 21  1  0  0  0  0
 19 45  1  0  0  0  0
 20 22  1  0  0  0  0
 20 52  1  0  0  0  0
 21 23  2  0  0  0  0
 21 46  1  0  0  0  0
 22 24  2  0  0  0  0
 22 51  1  0  0  0  0
 23 25  1  0  0  0  0
 23 47  1  0  0  0  0
 24 26  1  0  0  0  0
 24 48  1  0  0  0  0
 25 49  1  0  0  0  0
 26 50  1  0  0  0  0
 52 53  1  0  0  0  0
 52 54  1  0  0  0  0
 52 55  1  0  0  0  0
 55 56  1  0  0  0  0
 55 57  1  0  0  0  0
 55 58  1  0  0  0  0
M  END
>  <r_user_dG.exp>
-7.860000

$$$$
1a
  PyMOL2.3          3D                             0

 52 54  0  0  1  0  0  0  0  0999 V2000
   35.2288   16.8742   40.2091 N   0  0  0  0  0  0  0  0  0  0  0  0
   34.8420   18.2934   40.0877 C   0  0  2  0  0  0  0  0  0  0  0  0
   34.3991   15.8851   40.6276 C   0  0  0  0  0  0  0  0  0  0  0  0
   33.2598   16.1196   41.0367 O   0  0  0  0  0  0  0  0  0  0  0  0
   33.5099   18.5223   39.3403 C   0  0  0  0  0  0  0  0  0  0  0  0
   33.3029   17.9669   38.2596 O   0  0  0  0  0  0  0  0  0  0  0  0
   36.0087   18.9586   39.3419 C   0  0  0  0  0  0  0  0  0  0  0  0
   34.8708   14.4177   40.6312 C   0  0  2  0  0  0  0  0  0  0  0  0
   32.6227   19.3339   39.9233 N   0  0  0  0  0  0  0  0  0  0  0  0
   37.2161   18.0872   39.6201 C   0  0  0  0  0  0  0  0  0  0  0  0
   33.8268   13.5741   40.0245 N   0  3  0  0  0  0  0  0  0  0  0  0
   35.1871   13.9106   42.0575 C   0  0  0  0  0  0  0  0  0  0  0  0
   31.2928   19.6487   39.4268 C   0  0  0  0  0  0  0  0  0  0  0  0
   36.6398   16.6940   39.8483 C   0  0  0  0  0  0  0  0  0  0  0  0
   36.4414   14.5045   42.6741 C   0  0  0  0  0  0  0  0  0  0  0  0
   30.2068   18.7342   39.9662 C   0  0  0  0  0  0  0  0  0  0  0  0
   37.7194   14.0803   42.2505 C   0  0  0  0  0  0  0  0  0  0  0  0
   29.9915   17.4644   39.3879 C   0  0  0  0  0  0  0  0  0  0  0  0
   38.8757   14.6785   42.7903 C   0  0  0  0  0  0  0  0  0  0  0  0
   28.9560   16.6354   39.8669 C   0  0  0  0  0  0  0  0  0  0  0  0
   38.7585   15.7004   43.7529 C   0  0  0  0  0  0  0  0  0  0  0  0
   28.1350   17.0704   40.9279 C   0  0  0  0  0  0  0  0  0  0  0  0
   37.4866   16.0998   44.2014 C   0  0  0  0  0  0  0  0  0  0  0  0
   28.3618   18.3281   41.5209 C   0  0  0  0  0  0  0  0  0  0  0  0
   36.3380   15.4950   43.6688 C   0  0  0  0  0  0  0  0  0  0  0  0
   29.3946   19.1573   41.0414 C   0  0  0  0  0  0  0  0  0  0  0  0
   34.7717   18.7034   41.0951 H   0  0  0  0  0  0  0  0  0  0  0  0
   35.8258   18.9843   38.2658 H   0  0  0  0  0  0  0  0  0  0  0  0
   36.1726   19.9806   39.6704 H   0  0  0  0  0  0  0  0  0  0  0  0
   35.7502   14.2851   40.0027 H   0  0  0  0  0  0  0  0  0  0  0  0
   32.9055   19.7980   40.7862 H   0  0  0  0  0  0  0  0  0  0  0  0
   37.9513   18.1137   38.8146 H   0  0  0  0  0  0  0  0  0  0  0  0
   37.7120   18.4284   40.5302 H   0  0  0  0  0  0  0  0  0  0  0  0
   34.1145   12.6072   40.0287 H   0  0  0  0  0  0  0  0  0  0  0  0
   32.9723   13.6821   40.5587 H   0  0  0  0  0  0  0  0  0  0  0  0
   33.6585   13.8792   39.0771 H   0  0  0  0  0  0  0  0  0  0  0  0
   34.3352   14.0912   42.7170 H   0  0  0  0  0  0  0  0  0  0  0  0
   35.3165   12.8275   42.0425 H   0  0  0  0  0  0  0  0  0  0  0  0
   31.0638   20.6693   39.7327 H   0  0  0  0  0  0  0  0  0  0  0  0
   31.2701   19.6327   38.3349 H   0  0  0  0  0  0  0  0  0  0  0  0
   37.2064   16.1775   40.6209 H   0  0  0  0  0  0  0  0  0  0  0  0
   36.7074   16.1123   38.9279 H   0  0  0  0  0  0  0  0  0  0  0  0
   37.8209   13.3053   41.5033 H   0  0  0  0  0  0  0  0  0  0  0  0
   30.6216   17.1268   38.5748 H   0  0  0  0  0  0  0  0  0  0  0  0
   39.8553   14.3563   42.4654 H   0  0  0  0  0  0  0  0  0  0  0  0
   28.7897   15.6634   39.4228 H   0  0  0  0  0  0  0  0  0  0  0  0
   39.6451   16.1658   44.1566 H   0  0  0  0  0  0  0  0  0  0  0  0
   37.3777   16.8629   44.9581 H   0  0  0  0  0  0  0  0  0  0  0  0
   27.5941   18.7423   42.5567 F   0  0  0  0  0  0  0  0  0  0  0  0
   35.3771   15.7900   44.0446 H   0  0  0  0  0  0  0  0  0  0  0  0
   29.5610   20.1167   41.5085 H   0  0  0  0  0  0  0  0  0  0  0  0
   27.3369   16.4374   41.2930 H   0  0  0  0  0  0  0  0  0  0  0  0
  1  2  1  0  0  0  0
  1 14  1  0  0  0  0
  1  3  1  0  0  0  0
  2  5  1  0  0  0  0
  2  7  1  0  0  0  0
  2 27  1  0  0  0  0
  3  8  1  0  0  0  0
  3  4  2  0  0  0  0
  5  6  2  0  0  0  0
  5  9  1  0  0  0  0
  7 10  1  0  0  0  0
  7 28  1  0  0  0  0
  7 29  1  0  0  0  0
  8 11  1  0  0  0  0
  8 12  1  0  0  0  0
  8 30  1  0  0  0  0
  9 13  1  0  0  0  0
  9 31  1  0  0  0  0
 10 14  1  0  0  0  0
 10 32  1  0  0  0  0
 10 33  1  0  0  0  0
 11 34  1  0  0  0  0
 11 35  1  0  0  0  0
 11 36  1  0  0  0  0
 12 15  1  0  0  0  0
 12 37  1  0  0  0  0
 12 38  1  0  0  0  0
 13 16  1  0  0  0  0
 13 39  1  0  0  0  0
 13 40  1  0  0  0  0
 14 41  1  0  0  0  0
 14 42  1  0  0  0  0
 15 17  1  0  0  0  0
 15 25  2  0  0  0  0
 16 18  1  0  0  0  0
 16 26  2  0  0  0  0
 17 19  2  0  0  0  0
 17 43  1  0  0  0  0
 18 20  2  0  0  0  0
 18 44  1  0  0  0  0
 19 21  1  0  0  0  0
 19 45  1  0  0  0  0
 20 22  1  0  0  0  0
 20 46  1  0  0  0  0
 21 23  2  0  0  0  0
 21 47  1  0  0  0  0
 22 24  2  0  0  0  0
 22 52  1  0  0  0  0
 23 25  1  0  0  0  0
 23 48  1  0  0  0  0
 24 26  1  0  0  0  0
 24 49  1  0  0  0  0
 25 50  1  0  0  0  0
 26 51  1  0  0  0  0
M  END
>  <r_user_dG.exp>
-7.480000

$$$$
6a
  PyMOL2.3          3D                             0

 52 54  0  0  1  0  0  0  0  0999 V2000
   35.0872   16.9236   40.1960 N   0  0  0  0  0  0  0  0  0  0  0  0
   34.6618   18.3332   40.0933 C   0  0  2  0  0  0  0  0  0  0  0  0
   34.2875   15.9142   40.6172 C   0  0  0  0  0  0  0  0  0  0  0  0
   33.1524   16.1250   41.0484 O   0  0  0  0  0  0  0  0  0  0  0  0
   33.3178   18.5348   39.3511 C   0  0  0  0  0  0  0  0  0  0  0  0
   33.1380   17.9977   38.2579 O   0  0  0  0  0  0  0  0  0  0  0  0
   35.8153   19.0314   39.3589 C   0  0  0  0  0  0  0  0  0  0  0  0
   34.7927   14.4585   40.6008 C   0  0  2  0  0  0  0  0  0  0  0  0
   32.3900   19.2952   39.9486 N   0  0  0  0  0  0  0  0  0  0  0  0
   37.0439   18.1741   39.5905 C   0  0  0  0  0  0  0  0  0  0  0  0
   33.7676   13.5998   39.9842 N   0  3  0  0  0  0  0  0  0  0  0  0
   35.1266   13.9428   42.0204 C   0  0  0  0  0  0  0  0  0  0  0  0
   31.0313   19.5324   39.4627 C   0  0  0  0  0  0  0  0  0  0  0  0
   36.4965   16.7713   39.8178 C   0  0  0  0  0  0  0  0  0  0  0  0
   36.3922   14.5252   42.6277 C   0  0  0  0  0  0  0  0  0  0  0  0
   29.9408   18.8065   40.2479 C   0  0  0  0  0  0  0  0  0  0  0  0
   36.3105   15.4880   43.6506 C   0  0  0  0  0  0  0  0  0  0  0  0
   29.3806   17.5799   39.8090 C   0  0  0  0  0  0  0  0  0  0  0  0
   37.4701   16.0755   44.1802 C   0  0  0  0  0  0  0  0  0  0  0  0
   28.3431   16.9736   40.5462 C   0  0  0  0  0  0  0  0  0  0  0  0
   38.7327   15.6843   43.7010 C   0  0  0  0  0  0  0  0  0  0  0  0
   27.8517   17.5776   41.7186 C   0  0  0  0  0  0  0  0  0  0  0  0
   38.8286   14.6935   42.7053 C   0  0  0  0  0  0  0  0  0  0  0  0
   28.4139   18.7852   42.1703 C   0  0  0  0  0  0  0  0  0  0  0  0
   37.6613   14.1149   42.1679 C   0  0  0  0  0  0  0  0  0  0  0  0
   29.4497   19.3954   41.4348 C   0  0  0  0  0  0  0  0  0  0  0  0
   34.5862   18.7301   41.1051 H   0  0  0  0  0  0  0  0  0  0  0  0
   35.6194   19.1063   38.2876 H   0  0  0  0  0  0  0  0  0  0  0  0
   35.9740   20.0323   39.7412 H   0  0  0  0  0  0  0  0  0  0  0  0
   35.6717   14.3506   39.9677 H   0  0  0  0  0  0  0  0  0  0  0  0
   32.6702   19.7712   40.8047 H   0  0  0  0  0  0  0  0  0  0  0  0
   37.7584   18.2216   38.7669 H   0  0  0  0  0  0  0  0  0  0  0  0
   37.5608   18.5104   40.4904 H   0  0  0  0  0  0  0  0  0  0  0  0
   34.0765   12.6396   39.9753 H   0  0  0  0  0  0  0  0  0  0  0  0
   32.9121   13.6823   40.5212 H   0  0  0  0  0  0  0  0  0  0  0  0
   33.5906   13.9136   39.0413 H   0  0  0  0  0  0  0  0  0  0  0  0
   34.2837   14.1198   42.6920 H   0  0  0  0  0  0  0  0  0  0  0  0
   35.2528   12.8597   41.9965 H   0  0  0  0  0  0  0  0  0  0  0  0
   30.8372   20.5969   39.5744 H   0  0  0  0  0  0  0  0  0  0  0  0
   30.9432   19.3304   38.3939 H   0  0  0  0  0  0  0  0  0  0  0  0
   37.0806   16.2613   40.5821 H   0  0  0  0  0  0  0  0  0  0  0  0
   36.5648   16.1954   38.8940 H   0  0  0  0  0  0  0  0  0  0  0  0
   35.3587   15.7709   44.0549 H   0  0  0  0  0  0  0  0  0  0  0  0
   29.9190   16.8017   38.3657 Cl  0  0  0  0  0  0  0  0  0  0  0  0
   37.3782   16.8124   44.9643 H   0  0  0  0  0  0  0  0  0  0  0  0
   27.9170   16.0392   40.2077 H   0  0  0  0  0  0  0  0  0  0  0  0
   39.6283   16.1274   44.1104 H   0  0  0  0  0  0  0  0  0  0  0  0
   39.8004   14.3778   42.3538 H   0  0  0  0  0  0  0  0  0  0  0  0
   27.8604   19.4982   43.6420 Cl  0  0  0  0  0  0  0  0  0  0  0  0
   37.7474   13.3653   41.3942 H   0  0  0  0  0  0  0  0  0  0  0  0
   29.8769   20.3189   41.7938 H   0  0  0  0  0  0  0  0  0  0  0  0
   27.0542   17.1056   42.2758 H   0  0  0  0  0  0  0  0  0  0  0  0
  1  2  1  0  0  0  0
  1 14  1  0  0  0  0
  1  3  1  0  0  0  0
  2  5  1  0  0  0  0
  2  7  1  0  0  0  0
  2 27  1  0  0  0  0
  3  8  1  0  0  0  0
  3  4  2  0  0  0  0
  5  6  2  0  0  0  0
  5  9  1  0  0  0  0
  7 10  1  0  0  0  0
  7 28  1  0  0  0  0
  7 29  1  0  0  0  0
  8 11  1  0  0  0  0
  8 12  1  0  0  0  0
  8 30  1  0  0  0  0
  9 13  1  0  0  0  0
  9 31  1  0  0  0  0
 10 14  1  0  0  0  0
 10 32  1  0  0  0  0
 10 33  1  0  0  0  0
 11 34  1  0  0  0  0
 11 35  1  0  0  0  0
 11 36  1  0  0  0  0
 12 15  1  0  0  0  0
 12 37  1  0  0  0  0
 12 38  1  0  0  0  0
 13 16  1  0  0  0  0
 13 39  1  0  0  0  0
 13 40  1  0  0  0  0
 14 41  1  0  0  0  0
 14 42  1  0  0  0  0
 15 17  1  0  0  0  0
 15 25  2  0  0  0  0
 16 18  1  0  0  0  0
 16 26  2  0  0  0  0
 17 19  2  0  0  0  0
 17 43  1  0  0  0  0
 18 20  2  0  0  0  0
 18 44  1  0  0  0  0
 19 21  1  0  0  0  0
 19 45  1  0  0  0  0
 20 22  1  0  0  0  0
 20 46  1  0  0  0  0
 21 23  2  0  0  0  0
 21 47  1  0  0  0  0
 22 24  2  0  0  0  0
 22 52  1  0  0  0  0
 23 25  1  0  0  0  0
 23 48  1  0  0  0  0
 24 26  1  0  0  0  0
 24 49  1  0  0  0  0
 25 50  1  0  0  0  0
 26 51  1  0  0  0  0
M  END
>  <r_user_dG.exp>
-9.180000

$$$$
7a
  PyMOL2.3          3D                             0

 58 60  0  0  1  0  0  0  0  0999 V2000
   35.2422   16.9900   40.1639 N   0  0  0  0  0  0  0  0  0  0  0  0
   34.8921   18.4195   40.0429 C   0  0  2  0  0  0  0  0  0  0  0  0
   34.3860   16.0162   40.5653 C   0  0  0  0  0  0  0  0  0  0  0  0
   33.2481   16.2673   40.9658 O   0  0  0  0  0  0  0  0  0  0  0  0
   33.6006   18.6693   39.2338 C   0  0  0  0  0  0  0  0  0  0  0  0
   33.5377   18.2996   38.0601 O   0  0  0  0  0  0  0  0  0  0  0  0
   36.1034   19.0594   39.3414 C   0  0  0  0  0  0  0  0  0  0  0  0
   34.8252   14.5389   40.5561 C   0  0  2  0  0  0  0  0  0  0  0  0
   32.5911   19.2830   39.8622 N   0  0  0  0  0  0  0  0  0  0  0  0
   37.2762   18.1480   39.6266 C   0  0  0  0  0  0  0  0  0  0  0  0
   33.7673   13.7284   39.9284 N   0  3  0  0  0  0  0  0  0  0  0  0
   35.1175   14.0055   41.9791 C   0  0  0  0  0  0  0  0  0  0  0  0
   31.2622   19.5325   39.3153 C   0  0  0  0  0  0  0  0  0  0  0  0
   36.6543   16.7732   39.8308 C   0  0  0  0  0  0  0  0  0  0  0  0
   36.3897   14.5433   42.6135 C   0  0  0  0  0  0  0  0  0  0  0  0
   30.2054   18.5216   39.7553 C   0  0  0  0  0  0  0  0  0  0  0  0
   36.3183   15.5001   43.6427 C   0  0  0  0  0  0  0  0  0  0  0  0
   29.9867   17.2963   39.0695 C   0  0  0  0  0  0  0  0  0  0  0  0
   37.4837   16.0618   44.1859 C   0  0  0  0  0  0  0  0  0  0  0  0
   28.9902   16.4100   39.5232 C   0  0  0  0  0  0  0  0  0  0  0  0
   38.7421   15.6484   43.7154 C   0  0  0  0  0  0  0  0  0  0  0  0
   28.2024   16.7255   40.6406 C   0  0  0  0  0  0  0  0  0  0  0  0
   38.8279   14.6566   42.7198 C   0  0  0  0  0  0  0  0  0  0  0  0
   28.4129   17.9334   41.3267 C   0  0  0  0  0  0  0  0  0  0  0  0
   37.6544   14.1037   42.1687 C   0  0  0  0  0  0  0  0  0  0  0  0
   29.4106   18.8272   40.8841 C   0  0  0  0  0  0  0  0  0  0  0  0
   34.7864   18.8286   41.0477 H   0  0  0  0  0  0  0  0  0  0  0  0
   35.9590   19.1192   38.2613 H   0  0  0  0  0  0  0  0  0  0  0  0
   36.2965   20.0653   39.6959 H   0  0  0  0  0  0  0  0  0  0  0  0
   35.7054   14.3923   39.9323 H   0  0  0  0  0  0  0  0  0  0  0  0
   32.7784   19.6477   40.7928 H   0  0  0  0  0  0  0  0  0  0  0  0
   38.0201   18.1601   38.8298 H   0  0  0  0  0  0  0  0  0  0  0  0
   37.7706   18.4636   40.5461 H   0  0  0  0  0  0  0  0  0  0  0  0
   34.0367   12.7565   39.9120 H   0  0  0  0  0  0  0  0  0  0  0  0
   32.9140   13.8391   40.4637 H   0  0  0  0  0  0  0  0  0  0  0  0
   33.6064   14.0572   38.9878 H   0  0  0  0  0  0  0  0  0  0  0  0
   34.2684   14.2079   42.6353 H   0  0  0  0  0  0  0  0  0  0  0  0
   35.2080   12.9190   41.9514 H   0  0  0  0  0  0  0  0  0  0  0  0
   30.9527   20.5157   39.6687 H   0  0  0  0  0  0  0  0  0  0  0  0
   31.2885   19.6124   38.2291 H   0  0  0  0  0  0  0  0  0  0  0  0
   37.1908   16.2369   40.6103 H   0  0  0  0  0  0  0  0  0  0  0  0
   36.7255   16.1972   38.9073 H   0  0  0  0  0  0  0  0  0  0  0  0
   35.3696   15.8021   44.0389 H   0  0  0  0  0  0  0  0  0  0  0  0
   37.3981   16.7984   44.9707 H   0  0  0  0  0  0  0  0  0  0  0  0
   28.8245   15.4702   39.0179 H   0  0  0  0  0  0  0  0  0  0  0  0
   39.6415   16.0765   44.1310 H   0  0  0  0  0  0  0  0  0  0  0  0
   39.7969   14.3236   42.3764 H   0  0  0  0  0  0  0  0  0  0  0  0
   37.7326   13.3573   41.3913 H   0  0  0  0  0  0  0  0  0  0  0  0
   29.5761   19.7497   41.4210 H   0  0  0  0  0  0  0  0  0  0  0  0
   27.4438   16.0284   40.9705 H   0  0  0  0  0  0  0  0  0  0  0  0
   30.7984   16.8753   37.8600 C   0  0  0  0  0  0  0  0  0  0  0  0
   30.2694   16.1181   37.2809 H   0  0  0  0  0  0  0  0  0  0  0  0
   31.0033   17.7069   37.1884 H   0  0  0  0  0  0  0  0  0  0  0  0
   31.7430   16.4405   38.1853 H   0  0  0  0  0  0  0  0  0  0  0  0
   27.5823   18.2344   42.5530 C   0  0  0  0  0  0  0  0  0  0  0  0
   27.6672   19.2781   42.8541 H   0  0  0  0  0  0  0  0  0  0  0  0
   26.5356   17.9944   42.3673 H   0  0  0  0  0  0  0  0  0  0  0  0
   27.9098   17.6116   43.3815 H   0  0  0  0  0  0  0  0  0  0  0  0
  1  2  1  0  0  0  0
  1 14  1  0  0  0  0
  1  3  1  0  0  0  0
  2  5  1  0  0  0  0
  2  7  1  0  0  0  0
  2 27  1  0  0  0  0
  3  8  1  0  0  0  0
  3  4  2  0  0  0  0
  5  6  2  0  0  0  0
  5  9  1  0  0  0  0
  7 10  1  0  0  0  0
  7 28  1  0  0  0  0
  7 29  1  0  0  0  0
  8 11  1  0  0  0  0
  8 12  1  0  0  0  0
  8 30  1  0  0  0  0
  9 13  1  0  0  0  0
  9 31  1  0  0  0  0
 10 14  1  0  0  0  0
 10 32  1  0  0  0  0
 10 33  1  0  0  0  0
 11 34  1  0  0  0  0
 11 35  1  0  0  0  0
 11 36  1  0  0  0  0
 12 15  1  0  0  0  0
 12 37  1  0  0  0  0
 12 38  1  0  0  0  0
 13 16  1  0  0  0  0
 13 39  1  0  0  0  0
 13 40  1  0  0  0  0
 14 41  1  0  0  0  0
 14 42  1  0  0  0  0
 15 17  1  0  0  0  0
 15 25  2  0  0  0  0
 16 18  1  0  0  0  0
 16 26  2  0  0  0  0
 17 19  2  0  0  0  0
 17 43  1  0  0  0  0
 18 20  2  0  0  0  0
 18 51  1  0  0  0  0
 19 21  1  0  0  0  0
 19 44  1  0  0  0  0
 20 22  1  0  0  0  0
 20 45  1  0  0  0  0
 21 23  2  0  0  0  0
 21 46  1  0  0  0  0
 22 24  2  0  0  0  0
 22 50  1  0  0  0  0
 23 25  1  0  0  0  0
 23 47  1  0  0  0  0
 24 26  1  0  0  0  0
 24 55  1  0  0  0  0
 25 48  1  0  0  0  0
 26 49  1  0  0  0  0
 51 52  1  0  0  0  0
 51 53  1  0  0  0  0
 51 54  1  0  0  0  0
 55 56  1  0  0  0  0
 55 57  1  0  0  0  0
 55 58  1  0  0  0  0
M  END
>  <r_user_dG.exp>
-8.220000

$$$$
3a
  PyMOL2.3          3D                             0

 55 57  0  0  1  0  0  0  0  0999 V2000
   35.2362   16.9118   40.1958 N   0  0  0  0  0  0  0  0  0  0  0  0
   34.8579   18.3332   40.0714 C   0  0  2  0  0  0  0  0  0  0  0  0
   34.3992   15.9274   40.6111 C   0  0  0  0  0  0  0  0  0  0  0  0
   33.2618   16.1667   41.0205 O   0  0  0  0  0  0  0  0  0  0  0  0
   33.5398   18.5626   39.3000 C   0  0  0  0  0  0  0  0  0  0  0  0
   33.3760   18.0418   38.1948 O   0  0  0  0  0  0  0  0  0  0  0  0
   36.0380   18.9922   39.3403 C   0  0  0  0  0  0  0  0  0  0  0  0
   34.8602   14.4571   40.6113 C   0  0  2  0  0  0  0  0  0  0  0  0
   32.6184   19.3337   39.8868 N   0  0  0  0  0  0  0  0  0  0  0  0
   37.2360   18.1099   39.6200 C   0  0  0  0  0  0  0  0  0  0  0  0
   33.8105   13.6252   39.9980 N   0  3  0  0  0  0  0  0  0  0  0  0
   35.1678   13.9425   42.0372 C   0  0  0  0  0  0  0  0  0  0  0  0
   31.2856   19.6122   39.3712 C   0  0  0  0  0  0  0  0  0  0  0  0
   36.6477   16.7217   39.8437 C   0  0  0  0  0  0  0  0  0  0  0  0
   36.4288   14.5171   42.6588 C   0  0  0  0  0  0  0  0  0  0  0  0
   30.2490   18.5819   39.7809 C   0  0  0  0  0  0  0  0  0  0  0  0
   36.3380   15.4991   43.6620 C   0  0  0  0  0  0  0  0  0  0  0  0
   30.1331   17.3760   39.0589 C   0  0  0  0  0  0  0  0  0  0  0  0
   37.4933   16.0936   44.1916 C   0  0  0  0  0  0  0  0  0  0  0  0
   29.1663   16.4214   39.4260 C   0  0  0  0  0  0  0  0  0  0  0  0
   38.7593   15.6917   43.7321 C   0  0  0  0  0  0  0  0  0  0  0  0
   28.3159   16.6660   40.5194 C   0  0  0  0  0  0  0  0  0  0  0  0
   38.8639   14.6774   42.7618 C   0  0  0  0  0  0  0  0  0  0  0  0
   28.4345   17.8618   41.2537 C   0  0  0  0  0  0  0  0  0  0  0  0
   37.7010   14.0895   42.2251 C   0  0  0  0  0  0  0  0  0  0  0  0
   29.3976   18.8231   40.8805 C   0  0  0  0  0  0  0  0  0  0  0  0
   34.7723   18.7441   41.0774 H   0  0  0  0  0  0  0  0  0  0  0  0
   35.8658   19.0294   38.2631 H   0  0  0  0  0  0  0  0  0  0  0  0
   36.2100   20.0087   39.6784 H   0  0  0  0  0  0  0  0  0  0  0  0
   35.7400   14.3194   39.9845 H   0  0  0  0  0  0  0  0  0  0  0  0
   32.8687   19.7781   40.7687 H   0  0  0  0  0  0  0  0  0  0  0  0
   37.9724   18.1317   38.8160 H   0  0  0  0  0  0  0  0  0  0  0  0
   37.7325   18.4452   40.5316 H   0  0  0  0  0  0  0  0  0  0  0  0
   34.0892   12.6557   39.9984 H   0  0  0  0  0  0  0  0  0  0  0  0
   32.9559   13.7383   40.5304 H   0  0  0  0  0  0  0  0  0  0  0  0
   33.6469   13.9365   39.0519 H   0  0  0  0  0  0  0  0  0  0  0  0
   34.3171   14.1326   42.6952 H   0  0  0  0  0  0  0  0  0  0  0  0
   35.2828   12.8580   42.0195 H   0  0  0  0  0  0  0  0  0  0  0  0
   30.9759   20.5885   39.7438 H   0  0  0  0  0  0  0  0  0  0  0  0
   31.3042   19.6816   38.2823 H   0  0  0  0  0  0  0  0  0  0  0  0
   37.2056   16.2019   40.6198 H   0  0  0  0  0  0  0  0  0  0  0  0
   36.7171   16.1396   38.9240 H   0  0  0  0  0  0  0  0  0  0  0  0
   35.3820   15.7971   44.0450 H   0  0  0  0  0  0  0  0  0  0  0  0
   30.7924   17.1803   38.2252 H   0  0  0  0  0  0  0  0  0  0  0  0
   37.3941   16.8477   44.9572 H   0  0  0  0  0  0  0  0  0  0  0  0
   29.0786   15.4933   38.8794 H   0  0  0  0  0  0  0  0  0  0  0  0
   39.6510   16.1460   44.1368 H   0  0  0  0  0  0  0  0  0  0  0  0
   39.8387   14.3533   42.4276 H   0  0  0  0  0  0  0  0  0  0  0  0
   37.7928   13.3249   41.4673 H   0  0  0  0  0  0  0  0  0  0  0  0
   29.4962   19.7378   41.4464 H   0  0  0  0  0  0  0  0  0  0  0  0
   27.5805   15.9239   40.7989 H   0  0  0  0  0  0  0  0  0  0  0  0
   27.5500   18.0808   42.4611 C   0  0  0  0  0  0  0  0  0  0  0  0
   27.6235   19.1017   42.8351 H   0  0  0  0  0  0  0  0  0  0  0  0
   26.5102   17.8626   42.2198 H   0  0  0  0  0  0  0  0  0  0  0  0
   27.8485   17.4050   43.2601 H   0  0  0  0  0  0  0  0  0  0  0  0
  1  2  1  0  0  0  0
  1 14  1  0  0  0  0
  1  3  1  0  0  0  0
  2  5  1  0  0  0  0
  2  7  1  0  0  0  0
  2 27  1  0  0  0  0
  3  8  1  0  0  0  0
  3  4  2  0  0  0  0
  5  6  2  0  0  0  0
  5  9  1  0  0  0  0
  7 10  1  0  0  0  0
  7 28  1  0  0  0  0
  7 29  1  0  0  0  0
  8 11  1  0  0  0  0
  8 12  1  0  0  0  0
  8 30  1  0  0  0  0
  9 13  1  0  0  0  0
  9 31  1  0  0  0  0
 10 14  1  0  0  0  0
 10 32  1  0  0  0  0
 10 33  1  0  0  0  0
 11 34  1  0  0  0  0
 11 35  1  0  0  0  0
 11 36  1  0  0  0  0
 12 15  1  0  0  0  0
 12 37  1  0  0  0  0
 12 38  1  0  0  0  0
 13 16  1  0  0  0  0
 13 39  1  0  0  0  0
 13 40  1  0  0  0  0
 14 41  1  0  0  0  0
 14 42  1  0  0  0  0
 15 17  1  0  0  0  0
 15 25  2  0  0  0  0
 16 18  1  0  0  0  0
 16 26  2  0  0  0  0
 17 19  2  0  0  0  0
 17 43  1  0  0  0  0
 18 20  2  0  0  0  0
 18 44  1  0  0  0  0
 19 21  1  0  0  0  0
 19 45  1  0  0  0  0
 20 22  1  0  0  0  0
 20 46  1  0  0  0  0
 21 23  2  0  0  0  0
 21 47  1  0  0  0  0
 22 24  2  0  0  0  0
 22 51  1  0  0  0  0
 23 25  1  0  0  0  0
 23 48  1  0  0  0  0
 24 26  1  0  0  0  0
 24 52  1  0  0  0  0
 25 49  1  0  0  0  0
 26 50  1  0  0  0  0
 52 53  1  0  0  0  0
 52 54  1  0  0  0  0
 52 55  1  0  0  0  0
M  END
>  <r_user_dG.exp>
-8.320000

$$$$
5
  PyMOL2.3          3D                             0

 52 54  0  0  1  0  0  0  0  0999 V2000
   35.2614   16.9112   40.1974 N   0  0  0  0  0  0  0  0  0  0  0  0
   34.8911   18.3347   40.0702 C   0  0  2  0  0  0  0  0  0  0  0  0
   34.4183   15.9292   40.6079 C   0  0  0  0  0  0  0  0  0  0  0  0
   33.2775   16.1711   41.0069 O   0  0  0  0  0  0  0  0  0  0  0  0
   33.5759   18.5683   39.2971 C   0  0  0  0  0  0  0  0  0  0  0  0
   33.4190   18.0640   38.1835 O   0  0  0  0  0  0  0  0  0  0  0  0
   36.0750   18.9874   39.3395 C   0  0  0  0  0  0  0  0  0  0  0  0
   34.8740   14.4571   40.6120 C   0  0  2  0  0  0  0  0  0  0  0  0
   32.6435   19.3147   39.8975 N   0  0  0  0  0  0  0  0  0  0  0  0
   37.2677   18.1016   39.6276 C   0  0  0  0  0  0  0  0  0  0  0  0
   33.8226   13.6272   39.9987 N   0  3  0  0  0  0  0  0  0  0  0  0
   35.1758   13.9432   42.0393 C   0  0  0  0  0  0  0  0  0  0  0  0
   31.3063   19.5923   39.3914 C   0  0  0  0  0  0  0  0  0  0  0  0
   36.6734   16.7157   39.8507 C   0  0  0  0  0  0  0  0  0  0  0  0
   36.4350   14.5178   42.6641 C   0  0  0  0  0  0  0  0  0  0  0  0
   30.2485   18.6044   39.8601 C   0  0  0  0  0  0  0  0  0  0  0  0
   36.3410   15.4996   43.6670 C   0  0  0  0  0  0  0  0  0  0  0  0
   29.1442   19.0536   40.6157 C   0  0  0  0  0  0  0  0  0  0  0  0
   37.4945   16.0960   44.1979 C   0  0  0  0  0  0  0  0  0  0  0  0
   28.1478   18.1469   41.0280 C   0  0  0  0  0  0  0  0  0  0  0  0
   38.7621   15.6963   43.7396 C   0  0  0  0  0  0  0  0  0  0  0  0
   28.2443   16.7869   40.6786 C   0  0  0  0  0  0  0  0  0  0  0  0
   38.8698   14.6817   42.7698 C   0  0  0  0  0  0  0  0  0  0  0  0
   29.3450   16.3334   39.9280 C   0  0  0  0  0  0  0  0  0  0  0  0
   37.7086   14.0914   42.2323 C   0  0  0  0  0  0  0  0  0  0  0  0
   30.3451   17.2376   39.5228 C   0  0  0  0  0  0  0  0  0  0  0  0
   34.8058   18.7476   41.0754 H   0  0  0  0  0  0  0  0  0  0  0  0
   35.9068   19.0186   38.2614 H   0  0  0  0  0  0  0  0  0  0  0  0
   36.2491   20.0062   39.6708 H   0  0  0  0  0  0  0  0  0  0  0  0
   35.7547   14.3156   39.9877 H   0  0  0  0  0  0  0  0  0  0  0  0
   32.8902   19.7506   40.7848 H   0  0  0  0  0  0  0  0  0  0  0  0
   38.0072   18.1193   38.8267 H   0  0  0  0  0  0  0  0  0  0  0  0
   37.7610   18.4370   40.5408 H   0  0  0  0  0  0  0  0  0  0  0  0
   34.0992   12.6572   40.0006 H   0  0  0  0  0  0  0  0  0  0  0  0
   32.9678   13.7427   40.5303 H   0  0  0  0  0  0  0  0  0  0  0  0
   33.6610   13.9373   39.0519 H   0  0  0  0  0  0  0  0  0  0  0  0
   34.3231   14.1346   42.6943 H   0  0  0  0  0  0  0  0  0  0  0  0
   35.2903   12.8588   42.0229 H   0  0  0  0  0  0  0  0  0  0  0  0
   31.0312   20.5908   39.7294 H   0  0  0  0  0  0  0  0  0  0  0  0
   31.3036   19.6170   38.3003 H   0  0  0  0  0  0  0  0  0  0  0  0
   37.2268   16.1951   40.6294 H   0  0  0  0  0  0  0  0  0  0  0  0
   36.7444   16.1323   38.9318 H   0  0  0  0  0  0  0  0  0  0  0  0
   35.3839   15.7960   44.0488 H   0  0  0  0  0  0  0  0  0  0  0  0
   29.0538   20.0960   40.8780 H   0  0  0  0  0  0  0  0  0  0  0  0
   37.3926   16.8501   44.9634 H   0  0  0  0  0  0  0  0  0  0  0  0
   27.3041   18.4896   41.6080 H   0  0  0  0  0  0  0  0  0  0  0  0
   39.6524   16.1527   44.1448 H   0  0  0  0  0  0  0  0  0  0  0  0
   39.8459   14.3594   42.4364 H   0  0  0  0  0  0  0  0  0  0  0  0
   29.4253   15.2876   39.6686 H   0  0  0  0  0  0  0  0  0  0  0  0
   37.8027   13.3269   41.4744 H   0  0  0  0  0  0  0  0  0  0  0  0
   31.1863   16.8765   38.9491 H   0  0  0  0  0  0  0  0  0  0  0  0
   27.4763   16.0893   40.9844 H   0  0  0  0  0  0  0  0  0  0  0  0
  1  2  1  0  0  0  0
  1 14  1  0  0  0  0
  1  3  1  0  0  0  0
  2  5  1  0  0  0  0
  2  7  1  0  0  0  0
  2 27  1  0  0  0  0
  3  8  1  0  0  0  0
  3  4  2  0  0  0  0
  5  6  2  0  0  0  0
  5  9  1  0  0  0  0
  7 10  1  0  0  0  0
  7 28  1  0  0  0  0
  7 29  1  0  0  0  0
  8 11  1  0  0  0  0
  8 12  1  0  0  0  0
  8 30  1  0  0  0  0
  9 13  1  0  0  0  0
  9 31  1  0  0  0  0
 10 14  1  0  0  0  0
 10 32  1  0  0  0  0
 10 33  1  0  0  0  0
 11 34  1  0  0  0  0
 11 35  1  0  0  0  0
 11 36  1  0  0  0  0
 12 15  1  0  0  0  0
 12 37  1  0  0  0  0
 12 38  1  0  0  0  0
 13 16  1  0  0  0  0
 13 39  1  0  0  0  0
 13 40  1  0  0  0  0
 14 41  1  0  0  0  0
 14 42  1  0  0  0  0
 15 17  1  0  0  0  0
 15 25  2  0  0  0  0
 16 18  1  0  0  0  0
 16 26  2  0  0  0  0
 17 19  2  0  0  0  0
 17 43  1  0  0  0  0
 18 20  2  0  0  0  0
 18 44  1  0  0  0  0
 19 21  1  0  0  0  0
 19 45  1  0  0  0  0
 20 22  1  0  0  0  0
 20 46  1  0  0  0  0
 21 23  2  0  0  0  0
 21 47  1  0  0  0  0
 22 24  2  0  0  0  0
 22 52  1  0  0  0  0
 23 25  1  0  0  0  0
 23 48  1  0  0  0  0
 24 26  1  0  0  0  0
 24 49  1  0  0  0  0
 25 50  1  0  0  0  0
 26 51  1  0  0  0  0
M  END
>  <r_user_dG.exp>
-7.580000

$$$$
6b
  PyMOL2.3          3D                             0

 55 57  0  0  1  0  0  0  0  0999 V2000
   35.1061   16.9131   40.1971 N   0  0  0  0  0  0  0  0  0  0  0  0
   34.6850   18.3240   40.0915 C   0  0  2  0  0  0  0  0  0  0  0  0
   34.3036   15.9055   40.6180 C   0  0  0  0  0  0  0  0  0  0  0  0
   33.1651   16.1171   41.0382 O   0  0  0  0  0  0  0  0  0  0  0  0
   33.3393   18.5339   39.3544 C   0  0  0  0  0  0  0  0  0  0  0  0
   33.1533   18.0089   38.2554 O   0  0  0  0  0  0  0  0  0  0  0  0
   35.8396   19.0171   39.3537 C   0  0  0  0  0  0  0  0  0  0  0  0
   34.8082   14.4495   40.6140 C   0  0  2  0  0  0  0  0  0  0  0  0
   32.4176   19.2898   39.9649 N   0  0  0  0  0  0  0  0  0  0  0  0
   37.0664   18.1602   39.5958 C   0  0  0  0  0  0  0  0  0  0  0  0
   33.7835   13.5863   40.0025 N   0  3  0  0  0  0  0  0  0  0  0  0
   35.1370   13.9441   42.0382 C   0  0  0  0  0  0  0  0  0  0  0  0
   31.0618   19.5569   39.4944 C   0  0  0  0  0  0  0  0  0  0  0  0
   36.5164   16.7581   39.8238 C   0  0  0  0  0  0  0  0  0  0  0  0
   36.4050   14.5247   42.6410 C   0  0  0  0  0  0  0  0  0  0  0  0
   29.9673   18.8196   40.2658 C   0  0  0  0  0  0  0  0  0  0  0  0
   36.3278   15.5029   43.6494 C   0  0  0  0  0  0  0  0  0  0  0  0
   29.4439   17.5682   39.8455 C   0  0  0  0  0  0  0  0  0  0  0  0
   37.4903   16.0897   44.1726 C   0  0  0  0  0  0  0  0  0  0  0  0
   28.3916   16.9683   40.5722 C   0  0  0  0  0  0  0  0  0  0  0  0
   38.7511   15.6827   43.7020 C   0  0  0  0  0  0  0  0  0  0  0  0
   27.8709   17.5867   41.7232 C   0  0  0  0  0  0  0  0  0  0  0  0
   38.8422   14.6760   42.7221 C   0  0  0  0  0  0  0  0  0  0  0  0
   28.4148   18.8034   42.1694 C   0  0  0  0  0  0  0  0  0  0  0  0
   37.6721   14.0980   42.1905 C   0  0  0  0  0  0  0  0  0  0  0  0
   29.4478   19.4188   41.4352 C   0  0  0  0  0  0  0  0  0  0  0  0
   34.6142   18.7227   41.1031 H   0  0  0  0  0  0  0  0  0  0  0  0
   35.6457   19.0810   38.2813 H   0  0  0  0  0  0  0  0  0  0  0  0
   35.9971   20.0227   39.7252 H   0  0  0  0  0  0  0  0  0  0  0  0
   35.6889   14.3364   39.9837 H   0  0  0  0  0  0  0  0  0  0  0  0
   32.6995   19.7485   40.8300 H   0  0  0  0  0  0  0  0  0  0  0  0
   37.7860   18.2050   38.7768 H   0  0  0  0  0  0  0  0  0  0  0  0
   37.5773   18.4992   40.4983 H   0  0  0  0  0  0  0  0  0  0  0  0
   34.0910   12.6257   40.0040 H   0  0  0  0  0  0  0  0  0  0  0  0
   32.9269   13.6752   40.5366 H   0  0  0  0  0  0  0  0  0  0  0  0
   33.6099   13.8912   39.0562 H   0  0  0  0  0  0  0  0  0  0  0  0
   34.2945   14.1321   42.7073 H   0  0  0  0  0  0  0  0  0  0  0  0
   35.2570   12.8602   42.0243 H   0  0  0  0  0  0  0  0  0  0  0  0
   30.8852   20.6214   39.6372 H   0  0  0  0  0  0  0  0  0  0  0  0
   30.9686   19.3909   38.4209 H   0  0  0  0  0  0  0  0  0  0  0  0
   37.0974   16.2484   40.5909 H   0  0  0  0  0  0  0  0  0  0  0  0
   36.5869   16.1803   38.9013 H   0  0  0  0  0  0  0  0  0  0  0  0
   35.3773   15.7995   44.0468 H   0  0  0  0  0  0  0  0  0  0  0  0
   37.4017   16.8384   44.9452 H   0  0  0  0  0  0  0  0  0  0  0  0
   27.9819   16.0171   40.2603 H   0  0  0  0  0  0  0  0  0  0  0  0
   39.6485   16.1263   44.1064 H   0  0  0  0  0  0  0  0  0  0  0  0
   39.8127   14.3481   42.3781 H   0  0  0  0  0  0  0  0  0  0  0  0
   27.8495   19.5143   43.6387 Cl  0  0  0  0  0  0  0  0  0  0  0  0
   37.7543   13.3366   41.4283 H   0  0  0  0  0  0  0  0  0  0  0  0
   29.8592   20.3509   41.7895 H   0  0  0  0  0  0  0  0  0  0  0  0
   27.0732   17.1116   42.2771 H   0  0  0  0  0  0  0  0  0  0  0  0
   29.9995   16.8320   38.6404 C   0  0  0  0  0  0  0  0  0  0  0  0
   29.4066   15.9459   38.4104 H   0  0  0  0  0  0  0  0  0  0  0  0
   30.0077   17.4630   37.7532 H   0  0  0  0  0  0  0  0  0  0  0  0
   31.0183   16.5023   38.8446 H   0  0  0  0  0  0  0  0  0  0  0  0
  1  2  1  0  0  0  0
  1 14  1  0  0  0  0
  1  3  1  0  0  0  0
  2  5  1  0  0  0  0
  2  7  1  0  0  0  0
  2 27  1  0  0  0  0
  3  8  1  0  0  0  0
  3  4  2  0  0  0  0
  5  6  2  0  0  0  0
  5  9  1  0  0  0  0
  7 10  1  0  0  0  0
  7 28  1  0  0  0  0
  7 29  1  0  0  0  0
  8 11  1  0  0  0  0
  8 12  1  0  0  0  0
  8 30  1  0  0  0  0
  9 13  1  0  0  0  0
  9 31  1  0  0  0  0
 10 14  1  0  0  0  0
 10 32  1  0  0  0  0
 10 33  1  0  0  0  0
 11 34  1  0  0  0  0
 11 35  1  0  0  0  0
 11 36  1  0  0  0  0
 12 15  1  0  0  0  0
 12 37  1  0  0  0  0
 12 38  1  0  0  0  0
 13 16  1  0  0  0  0
 13 39  1  0  0  0  0
 13 40  1  0  0  0  0
 14 41  1  0  0  0  0
 14 42  1  0  0  0  0
 15 17  1  0  0  0  0
 15 25  2  0  0  0  0
 16 18  1  0  0  0  0
 16 26  2  0  0  0  0
 17 19  2  0  0  0  0
 17 43  1  0  0  0  0
 18 20  2  0  0  0  0
 18 52  1  0  0  0  0
 19 21  1  0  0  0  0
 19 44  1  0  0  0  0
 20 22  1  0  0  0  0
 20 45  1  0  0  0  0
 21 23  2  0  0  0  0
 21 46  1  0  0  0  0
 22 24  2  0  0  0  0
 22 51  1  0  0  0  0
 23 25  1  0  0  0  0
 23 47  1  0  0  0  0
 24 26  1  0  0  0  0
 24 48  1  0  0  0  0
 25 49  1  0  0  0  0
 26 50  1  0  0  0  0
 52 53  1  0  0  0  0
 52 54  1  0  0  0  0
 52 55  1  0  0  0  0
M  END
>  <r_user_dG.exp>
-8.890000

$$$$
6e
  PyMOL2.3          3D                             0

 52 54  0  0  1  0  0  0  0  0999 V2000
   35.1216   16.9158   40.2066 N   0  0  0  0  0  0  0  0  0  0  0  0
   34.7028   18.3275   40.1002 C   0  0  2  0  0  0  0  0  0  0  0  0
   34.3165   15.9086   40.6253 C   0  0  0  0  0  0  0  0  0  0  0  0
   33.1798   16.1221   41.0513 O   0  0  0  0  0  0  0  0  0  0  0  0
   33.3593   18.5350   39.3590 C   0  0  0  0  0  0  0  0  0  0  0  0
   33.1704   17.9878   38.2722 O   0  0  0  0  0  0  0  0  0  0  0  0
   35.8583   19.0185   39.3613 C   0  0  0  0  0  0  0  0  0  0  0  0
   34.8169   14.4509   40.6115 C   0  0  2  0  0  0  0  0  0  0  0  0
   32.4434   19.3150   39.9490 N   0  0  0  0  0  0  0  0  0  0  0  0
   37.0836   18.1607   39.6056 C   0  0  0  0  0  0  0  0  0  0  0  0
   33.7880   13.5951   39.9969 N   0  3  0  0  0  0  0  0  0  0  0  0
   35.1481   13.9354   42.0316 C   0  0  0  0  0  0  0  0  0  0  0  0
   31.0916   19.5740   39.4566 C   0  0  0  0  0  0  0  0  0  0  0  0
   36.5317   16.7592   39.8324 C   0  0  0  0  0  0  0  0  0  0  0  0
   36.4090   14.5236   42.6415 C   0  0  0  0  0  0  0  0  0  0  0  0
   29.9902   18.8457   40.2149 C   0  0  0  0  0  0  0  0  0  0  0  0
   37.6815   14.1092   42.1950 C   0  0  0  0  0  0  0  0  0  0  0  0
   29.4349   17.6442   39.7196 C   0  0  0  0  0  0  0  0  0  0  0  0
   38.8443   14.6918   42.7373 C   0  0  0  0  0  0  0  0  0  0  0  0
   28.3982   17.0007   40.4249 C   0  0  0  0  0  0  0  0  0  0  0  0
   38.7403   15.6901   43.7245 C   0  0  0  0  0  0  0  0  0  0  0  0
   27.8917   17.5624   41.6136 C   0  0  0  0  0  0  0  0  0  0  0  0
   37.4743   16.0833   44.1921 C   0  0  0  0  0  0  0  0  0  0  0  0
   28.4385   18.7609   42.1106 C   0  0  0  0  0  0  0  0  0  0  0  0
   36.3191   15.4922   43.6578 C   0  0  0  0  0  0  0  0  0  0  0  0
   29.4842   19.3971   41.4123 C   0  0  0  0  0  0  0  0  0  0  0  0
   34.6297   18.7277   41.1108 H   0  0  0  0  0  0  0  0  0  0  0  0
   35.6650   19.0787   38.2887 H   0  0  0  0  0  0  0  0  0  0  0  0
   36.0166   20.0255   39.7284 H   0  0  0  0  0  0  0  0  0  0  0  0
   35.6959   14.3396   39.9789 H   0  0  0  0  0  0  0  0  0  0  0  0
   32.7274   19.7928   40.8035 H   0  0  0  0  0  0  0  0  0  0  0  0
   37.8044   18.2047   38.7874 H   0  0  0  0  0  0  0  0  0  0  0  0
   37.5935   18.4991   40.5088 H   0  0  0  0  0  0  0  0  0  0  0  0
   34.0930   12.6336   39.9899 H   0  0  0  0  0  0  0  0  0  0  0  0
   32.9329   13.6821   40.5335 H   0  0  0  0  0  0  0  0  0  0  0  0
   33.6124   13.9079   39.0535 H   0  0  0  0  0  0  0  0  0  0  0  0
   34.3028   14.1097   42.7007 H   0  0  0  0  0  0  0  0  0  0  0  0
   35.2784   12.8528   42.0077 H   0  0  0  0  0  0  0  0  0  0  0  0
   30.9037   20.6371   39.5861 H   0  0  0  0  0  0  0  0  0  0  0  0
   31.0079   19.3757   38.3862 H   0  0  0  0  0  0  0  0  0  0  0  0
   37.1125   16.2481   40.5984 H   0  0  0  0  0  0  0  0  0  0  0  0
   36.6007   16.1827   38.9090 H   0  0  0  0  0  0  0  0  0  0  0  0
   37.7737   13.3505   41.4312 H   0  0  0  0  0  0  0  0  0  0  0  0
   29.8718   17.1166   38.5523 F   0  0  0  0  0  0  0  0  0  0  0  0
   39.8193   14.3743   42.3958 H   0  0  0  0  0  0  0  0  0  0  0  0
   27.9819   16.0780   40.0452 H   0  0  0  0  0  0  0  0  0  0  0  0
   39.6322   16.1421   44.1316 H   0  0  0  0  0  0  0  0  0  0  0  0
   37.3755   16.8297   44.9659 H   0  0  0  0  0  0  0  0  0  0  0  0
   27.8539   19.4353   43.5893 Cl  0  0  0  0  0  0  0  0  0  0  0  0
   35.3639   15.7784   44.0516 H   0  0  0  0  0  0  0  0  0  0  0  0
   29.9034   20.3105   41.8047 H   0  0  0  0  0  0  0  0  0  0  0  0
   27.0895   17.0686   42.1445 H   0  0  0  0  0  0  0  0  0  0  0  0
  1  2  1  0  0  0  0
  1 14  1  0  0  0  0
  1  3  1  0  0  0  0
  2  5  1  0  0  0  0
  2  7  1  0  0  0  0
  2 27  1  0  0  0  0
  3  8  1  0  0  0  0
  3  4  2  0  0  0  0
  5  6  2  0  0  0  0
  5  9  1  0  0  0  0
  7 10  1  0  0  0  0
  7 28  1  0  0  0  0
  7 29  1  0  0  0  0
  8 11  1  0  0  0  0
  8 12  1  0  0  0  0
  8 30  1  0  0  0  0
  9 13  1  0  0  0  0
  9 31  1  0  0  0  0
 10 14  1  0  0  0  0
 10 32  1  0  0  0  0
 10 33  1  0  0  0  0
 11 34  1  0  0  0  0
 11 35  1  0  0  0  0
 11 36  1  0  0  0  0
 12 15  1  0  0  0  0
 12 37  1  0  0  0  0
 12 38  1  0  0  0  0
 13 16  1  0  0  0  0
 13 39  1  0  0  0  0
 13 40  1  0  0  0  0
 14 41  1  0  0  0  0
 14 42  1  0  0  0  0
 15 17  1  0  0  0  0
 15 25  2  0  0  0  0
 16 18  1  0  0  0  0
 16 26  2  0  0  0  0
 17 19  2  0  0  0  0
 17 43  1  0  0  0  0
 18 20  2  0  0  0  0
 18 44  1  0  0  0  0
 19 21  1  0  0  0  0
 19 45  1  0  0  0  0
 20 22  1  0  0  0  0
 20 46  1  0  0  0  0
 21 23  2  0  0  0  0
 21 47  1  0  0  0  0
 22 24  2  0  0  0  0
 22 52  1  0  0  0  0
 23 25  1  0  0  0  0
 23 48  1  0  0  0  0
 24 26  1  0  0  0  0
 24 49  1  0  0  0  0
 25 50  1  0  0  0  0
 26 51  1  0  0  0  0
M  END
>  <r_user_dG.exp>
-8.910000

$$$$
1c
  PyMOL2.3          3D                             0

 52 54  0  0  1  0  0  0  0  0999 V2000
   35.1335   16.8896   40.2045 N   0  0  0  0  0  0  0  0  0  0  0  0
   34.7154   18.3011   40.0969 C   0  0  2  0  0  0  0  0  0  0  0  0
   34.3303   15.8841   40.6304 C   0  0  0  0  0  0  0  0  0  0  0  0
   33.1934   16.0987   41.0539 O   0  0  0  0  0  0  0  0  0  0  0  0
   33.3624   18.5184   39.3760 C   0  0  0  0  0  0  0  0  0  0  0  0
   33.1318   17.9484   38.3083 O   0  0  0  0  0  0  0  0  0  0  0  0
   35.8636   18.9901   39.3458 C   0  0  0  0  0  0  0  0  0  0  0  0
   34.8323   14.4269   40.6288 C   0  0  2  0  0  0  0  0  0  0  0  0
   32.4847   19.3387   39.9653 N   0  0  0  0  0  0  0  0  0  0  0  0
   37.0914   18.1365   39.5939 C   0  0  0  0  0  0  0  0  0  0  0  0
   33.8043   13.5641   40.0223 N   0  3  0  0  0  0  0  0  0  0  0  0
   35.1625   13.9245   42.0534 C   0  0  0  0  0  0  0  0  0  0  0  0
   31.1385   19.6484   39.5015 C   0  0  0  0  0  0  0  0  0  0  0  0
   36.5427   16.7339   39.8268 C   0  0  0  0  0  0  0  0  0  0  0  0
   36.4244   14.5164   42.6571 C   0  0  0  0  0  0  0  0  0  0  0  0
   30.0424   18.8890   40.2307 C   0  0  0  0  0  0  0  0  0  0  0  0
   36.3360   15.5035   43.6556 C   0  0  0  0  0  0  0  0  0  0  0  0
   29.5686   17.6567   39.7337 C   0  0  0  0  0  0  0  0  0  0  0  0
   37.4926   16.1021   44.1783 C   0  0  0  0  0  0  0  0  0  0  0  0
   28.5241   16.9805   40.3978 C   0  0  0  0  0  0  0  0  0  0  0  0
   38.7580   15.6990   43.7167 C   0  0  0  0  0  0  0  0  0  0  0  0
   27.9544   17.5291   41.5647 C   0  0  0  0  0  0  0  0  0  0  0  0
   38.8600   14.6835   42.7472 C   0  0  0  0  0  0  0  0  0  0  0  0
   28.4444   18.7443   42.0809 C   0  0  0  0  0  0  0  0  0  0  0  0
   37.6959   14.0929   42.2161 C   0  0  0  0  0  0  0  0  0  0  0  0
   29.4792   19.4236   41.4089 C   0  0  0  0  0  0  0  0  0  0  0  0
   34.6565   18.7020   41.1084 H   0  0  0  0  0  0  0  0  0  0  0  0
   35.6635   19.0371   38.2738 H   0  0  0  0  0  0  0  0  0  0  0  0
   36.0197   20.0026   39.7008 H   0  0  0  0  0  0  0  0  0  0  0  0
   35.7119   14.3115   39.9975 H   0  0  0  0  0  0  0  0  0  0  0  0
   32.7928   19.8135   40.8137 H   0  0  0  0  0  0  0  0  0  0  0  0
   37.8122   18.1790   38.7758 H   0  0  0  0  0  0  0  0  0  0  0  0
   37.5998   18.4804   40.4959 H   0  0  0  0  0  0  0  0  0  0  0  0
   34.1095   12.6027   40.0268 H   0  0  0  0  0  0  0  0  0  0  0  0
   32.9486   13.6572   40.5569 H   0  0  0  0  0  0  0  0  0  0  0  0
   33.6301   13.8659   39.0750 H   0  0  0  0  0  0  0  0  0  0  0  0
   34.3177   14.1068   42.7212 H   0  0  0  0  0  0  0  0  0  0  0  0
   35.2907   12.8414   42.0403 H   0  0  0  0  0  0  0  0  0  0  0  0
   30.9713   20.7076   39.6873 H   0  0  0  0  0  0  0  0  0  0  0  0
   31.0431   19.5013   38.4238 H   0  0  0  0  0  0  0  0  0  0  0  0
   37.1264   16.2259   40.5929 H   0  0  0  0  0  0  0  0  0  0  0  0
   36.6100   16.1540   38.9053 H   0  0  0  0  0  0  0  0  0  0  0  0
   35.3816   15.7982   44.0450 H   0  0  0  0  0  0  0  0  0  0  0  0
   30.0058   17.2290   38.8420 H   0  0  0  0  0  0  0  0  0  0  0  0
   37.3955   16.8570   44.9437 H   0  0  0  0  0  0  0  0  0  0  0  0
   28.1607   16.0355   40.0172 H   0  0  0  0  0  0  0  0  0  0  0  0
   39.6507   16.1525   44.1203 H   0  0  0  0  0  0  0  0  0  0  0  0
   39.8342   14.3584   42.4108 H   0  0  0  0  0  0  0  0  0  0  0  0
   27.7531   19.4488   43.7109 Br  0  0  0  0  0  0  0  0  0  0  0  0
   37.7861   13.3248   41.4615 H   0  0  0  0  0  0  0  0  0  0  0  0
   29.8540   20.3493   41.8163 H   0  0  0  0  0  0  0  0  0  0  0  0
   27.1572   17.0061   42.0747 H   0  0  0  0  0  0  0  0  0  0  0  0
  1  2  1  0  0  0  0
  1 14  1  0  0  0  0
  1  3  1  0  0  0  0
  2  5  1  0  0  0  0
  2  7  1  0  0  0  0
  2 27  1  0  0  0  0
  3  8  1  0  0  0  0
  3  4  2  0  0  0  0
  5  6  2  0  0  0  0
  5  9  1  0  0  0  0
  7 10  1  0  0  0  0
  7 28  1  0  0  0  0
  7 29  1  0  0  0  0
  8 11  1  0  0  0  0
  8 12  1  0  0  0  0
  8 30  1  0  0  0  0
  9 13  1  0  0  0  0
  9 31  1  0  0  0  0
 10 14  1  0  0  0  0
 10 32  1  0  0  0  0
 10 33  1  0  0  0  0
 11 34  1  0  0  0  0
 11 35  1  0  0  0  0
 11 36  1  0  0  0  0
 12 15  1  0  0  0  0
 12 37  1  0  0  0  0
 12 38  1  0  0  0  0
 13 16  1  0  0  0  0
 13 39  1  0  0  0  0
 13 40  1  0  0  0  0
 14 41  1  0  0  0  0
 14 42  1  0  0  0  0
 15 17  1  0  0  0  0
 15 25  2  0  0  0  0
 16 18  1  0  0  0  0
 16 26  2  0  0  0  0
 17 19  2  0  0  0  0
 17 43  1  0  0  0  0
 18 20  2  0  0  0  0
 18 44  1  0  0  0  0
 19 21  1  0  0  0  0
 19 45  1  0  0  0  0
 20 22  1  0  0  0  0
 20 46  1  0  0  0  0
 21 23  2  0  0  0  0
 21 47  1  0  0  0  0
 22 24  2  0  0  0  0
 22 52  1  0  0  0  0
 23 25  1  0  0  0  0
 23 48  1  0  0  0  0
 24 26  1  0  0  0  0
 24 49  1  0  0  0  0
 25 50  1  0  0  0  0
 26 51  1  0  0  0  0
M  END
>  <r_user_dG.exp>
-8.560000

$$$$
