23469
  PyMOL2.3          3D                             0

 41 43  0  0  0  0  0  0  0  0999 V2000
   33.9290   35.0963   37.7939 O   0  0  0  0  0  0  0  0  0  0  0  0
   35.0640   34.5730   37.7302 C   0  0  0  0  0  0  0  0  0  0  0  0
   35.8916   34.7549   36.8101 O   0  5  0  0  0  0  0  0  0  0  0  0
   35.5015   33.6546   38.8734 C   0  0  0  0  0  0  0  0  0  0  0  0
   36.8431   33.2196   38.6956 O   0  0  0  0  0  0  0  0  0  0  0  0
   37.2965   32.4140   39.6799 C   0  0  0  0  0  0  0  0  0  0  0  0
   36.9251   31.0840   39.8557 C   0  0  0  0  0  0  0  0  0  0  0  0
   35.8271   30.1748   38.5897 Br  0  0  0  0  0  0  0  0  0  0  0  0
   37.4108   30.4480   40.9872 C   0  0  0  0  0  0  0  0  0  0  0  0
   37.1092   29.1227   41.4957 C   0  0  0  0  0  0  0  0  0  0  0  0
   38.1252   28.2611   41.9171 C   0  0  0  0  0  0  0  0  0  0  0  0
   37.8235   26.9816   42.3799 C   0  0  0  0  0  0  0  0  0  0  0  0
   36.4984   26.5476   42.4175 C   0  0  0  0  0  0  0  0  0  0  0  0
   35.4638   27.3956   41.9991 C   0  0  0  0  0  0  0  0  0  0  0  0
   34.1053   27.0356   42.0209 N   0  0  0  0  0  0  0  0  0  0  0  0
   33.6485   25.6489   42.0134 C   0  0  0  0  0  0  0  0  0  0  0  0
   33.2981   25.0149   43.0085 O   0  0  0  0  0  0  0  0  0  0  0  0
   33.5846   25.0548   40.6123 C   0  0  0  0  0  0  0  0  0  0  0  0
   34.7502   24.6482   39.9532 C   0  0  0  0  0  0  0  0  0  0  0  0
   34.6781   24.0873   38.6779 C   0  0  0  0  0  0  0  0  0  0  0  0
   33.4415   23.9113   38.0617 C   0  0  0  0  0  0  0  0  0  0  0  0
   32.2761   24.3127   38.7126 C   0  0  0  0  0  0  0  0  0  0  0  0
   32.3459   24.8861   39.9827 C   0  0  0  0  0  0  0  0  0  0  0  0
   35.7824   28.6807   41.5571 C   0  0  0  0  0  0  0  0  0  0  0  0
   38.5181   31.5153   41.7995 S   0  0  0  0  0  0  0  0  0  0  0  0
   38.2252   32.8033   40.6432 C   0  0  0  0  0  0  0  0  0  0  0  0
   38.9728   34.0658   40.8450 C   0  0  0  0  0  0  0  0  0  0  0  0
   38.7863   35.0068   40.0433 O   0  0  0  0  0  0  0  0  0  0  0  0
   39.7671   34.1608   41.8075 O   0  5  0  0  0  0  0  0  0  0  0  0
   35.4145   34.1886   39.8207 H   0  0  0  0  0  0  0  0  0  0  0  0
   34.8158   32.8061   38.9104 H   0  0  0  0  0  0  0  0  0  0  0  0
   39.1565   28.5816   41.8873 H   0  0  0  0  0  0  0  0  0  0  0  0
   38.6169   26.3283   42.7121 H   0  0  0  0  0  0  0  0  0  0  0  0
   36.2972   25.5547   42.7877 H   0  0  0  0  0  0  0  0  0  0  0  0
   33.4545   27.8041   41.9548 H   0  0  0  0  0  0  0  0  0  0  0  0
   35.7179   24.7556   40.4217 H   0  0  0  0  0  0  0  0  0  0  0  0
   35.5821   23.7856   38.1694 H   0  0  0  0  0  0  0  0  0  0  0  0
   33.3846   23.4597   37.0823 H   0  0  0  0  0  0  0  0  0  0  0  0
   31.3172   24.1781   38.2341 H   0  0  0  0  0  0  0  0  0  0  0  0
   31.4366   25.2025   40.4735 H   0  0  0  0  0  0  0  0  0  0  0  0
   34.9875   29.3476   41.2560 H   0  0  0  0  0  0  0  0  0  0  0  0
  1  2  2  0  0  0  0
  2  3  1  0  0  0  0
  2  4  1  0  0  0  0
  4  5  1  0  0  0  0
  4 30  1  0  0  0  0
  4 31  1  0  0  0  0
  5  6  1  0  0  0  0
  6 26  2  0  0  0  0
  6  7  1  0  0  0  0
  7  8  1  0  0  0  0
  7  9  2  0  0  0  0
  9 10  1  0  0  0  0
  9 25  1  0  0  0  0
 10 24  1  0  0  0  0
 10 11  2  0  0  0  0
 11 12  1  0  0  0  0
 11 32  1  0  0  0  0
 12 13  2  0  0  0  0
 12 33  1  0  0  0  0
 13 14  1  0  0  0  0
 13 34  1  0  0  0  0
 14 15  1  0  0  0  0
 14 24  2  0  0  0  0
 15 16  1  0  0  0  0
 15 35  1  0  0  0  0
 16 17  2  0  0  0  0
 16 18  1  0  0  0  0
 18 23  1  0  0  0  0
 18 19  2  0  0  0  0
 19 20  1  0  0  0  0
 19 36  1  0  0  0  0
 20 21  2  0  0  0  0
 20 37  1  0  0  0  0
 21 22  1  0  0  0  0
 21 38  1  0  0  0  0
 22 23  2  0  0  0  0
 22 39  1  0  0  0  0
 23 40  1  0  0  0  0
 24 41  1  0  0  0  0
 25 26  1  0  0  0  0
 26 27  1  0  0  0  0
 27 28  2  0  0  0  0
 27 29  1  0  0  0  0
M  END
>  <i_m_stars>
2

>  <r_user_dG.exp>
-7.723019

$$$$
23472
  PyMOL2.3          3D                             0

 42 44  0  0  0  0  0  0  0  0999 V2000
   36.0598   35.2214   37.0260 O   0  0  0  0  0  0  0  0  0  0  0  0
   35.2816   35.1148   38.0002 C   0  0  0  0  0  0  0  0  0  0  0  0
   34.2495   35.7989   38.1771 O   0  5  0  0  0  0  0  0  0  0  0  0
   35.6174   34.0883   39.0843 C   0  0  0  0  0  0  0  0  0  0  0  0
   36.7773   33.3420   38.7404 O   0  0  0  0  0  0  0  0  0  0  0  0
   37.1459   32.4357   39.6710 C   0  0  0  0  0  0  0  0  0  0  0  0
   36.6166   31.1138   39.7523 C   0  0  0  0  0  0  0  0  0  0  0  0
   35.3225   30.4739   38.5073 Br  0  0  0  0  0  0  0  0  0  0  0  0
   37.0919   30.3635   40.7970 C   0  0  0  0  0  0  0  0  0  0  0  0
   36.7793   28.9989   41.2116 C   0  0  0  0  0  0  0  0  0  0  0  0
   37.8099   28.0622   41.4458 C   0  0  0  0  0  0  0  0  0  0  0  0
   37.5080   26.7467   41.8473 C   0  0  0  0  0  0  0  0  0  0  0  0
   36.1680   26.3523   42.0187 C   0  0  0  0  0  0  0  0  0  0  0  0
   35.1305   27.2758   41.7871 C   0  0  0  0  0  0  0  0  0  0  0  0
   33.7834   26.9333   41.9481 N   0  0  0  0  0  0  0  0  0  0  0  0
   33.0744   25.3875   42.2971 S   0  0  0  0  0  0  0  0  0  0  0  0
   33.7237   24.9000   43.5241 O   0  0  0  0  0  0  0  0  0  0  0  0
   31.6201   25.5990   42.2397 O   0  0  0  0  0  0  0  0  0  0  0  0
   33.5675   24.3803   40.9024 C   0  0  0  0  0  0  0  0  0  0  0  0
   32.7414   24.3367   39.7619 C   0  0  0  0  0  0  0  0  0  0  0  0
   33.1241   23.5542   38.6548 C   0  0  0  0  0  0  0  0  0  0  0  0
   34.3264   22.8197   38.6916 C   0  0  0  0  0  0  0  0  0  0  0  0
   34.6924   22.0685   37.6265 F   0  0  0  0  0  0  0  0  0  0  0  0
   35.1485   22.8657   39.8357 C   0  0  0  0  0  0  0  0  0  0  0  0
   34.7706   23.6465   40.9458 C   0  0  0  0  0  0  0  0  0  0  0  0
   35.4375   28.5915   41.3854 C   0  0  0  0  0  0  0  0  0  0  0  0
   38.2468   31.2892   41.7203 S   0  0  0  0  0  0  0  0  0  0  0  0
   38.0577   32.6843   40.6728 C   0  0  0  0  0  0  0  0  0  0  0  0
   38.8687   33.8797   40.9996 C   0  0  0  0  0  0  0  0  0  0  0  0
   38.7545   34.8958   40.2802 O   0  0  0  0  0  0  0  0  0  0  0  0
   39.6448   33.8444   41.9809 O   0  5  0  0  0  0  0  0  0  0  0  0
   35.7597   34.6211   40.0263 H   0  0  0  0  0  0  0  0  0  0  0  0
   34.7731   33.4099   39.2147 H   0  0  0  0  0  0  0  0  0  0  0  0
   38.8435   28.3522   41.3263 H   0  0  0  0  0  0  0  0  0  0  0  0
   38.3058   26.0414   42.0272 H   0  0  0  0  0  0  0  0  0  0  0  0
   35.9587   25.3419   42.3334 H   0  0  0  0  0  0  0  0  0  0  0  0
   33.1264   27.6568   41.6950 H   0  0  0  0  0  0  0  0  0  0  0  0
   31.8216   24.9023   39.7342 H   0  0  0  0  0  0  0  0  0  0  0  0
   32.4964   23.5174   37.7766 H   0  0  0  0  0  0  0  0  0  0  0  0
   36.0692   22.3019   39.8607 H   0  0  0  0  0  0  0  0  0  0  0  0
   35.4038   23.6797   41.8200 H   0  0  0  0  0  0  0  0  0  0  0  0
   34.6391   29.2951   41.1985 H   0  0  0  0  0  0  0  0  0  0  0  0
  1  2  2  0  0  0  0
  2  3  1  0  0  0  0
  2  4  1  0  0  0  0
  4  5  1  0  0  0  0
  4 32  1  0  0  0  0
  4 33  1  0  0  0  0
  5  6  1  0  0  0  0
  6 28  2  0  0  0  0
  6  7  1  0  0  0  0
  7  8  1  0  0  0  0
  7  9  2  0  0  0  0
  9 10  1  0  0  0  0
  9 27  1  0  0  0  0
 10 26  1  0  0  0  0
 10 11  2  0  0  0  0
 11 12  1  0  0  0  0
 11 34  1  0  0  0  0
 12 13  2  0  0  0  0
 12 35  1  0  0  0  0
 13 14  1  0  0  0  0
 13 36  1  0  0  0  0
 14 15  1  0  0  0  0
 14 26  2  0  0  0  0
 15 16  1  0  0  0  0
 15 37  1  0  0  0  0
 16 17  2  0  0  0  0
 16 18  2  0  0  0  0
 16 19  1  0  0  0  0
 19 25  1  0  0  0  0
 19 20  2  0  0  0  0
 20 21  1  0  0  0  0
 20 38  1  0  0  0  0
 21 22  2  0  0  0  0
 21 39  1  0  0  0  0
 22 23  1  0  0  0  0
 22 24  1  0  0  0  0
 24 25  2  0  0  0  0
 24 40  1  0  0  0  0
 25 41  1  0  0  0  0
 26 42  1  0  0  0  0
 27 28  1  0  0  0  0
 28 29  1  0  0  0  0
 29 30  2  0  0  0  0
 29 31  1  0  0  0  0
M  END
>  <i_m_stars>
2

>  <r_user_dG.exp>
-8.646289

$$$$
23474
  PyMOL2.3          3D                             0

 48 50  0  0  0  0  0  0  0  0999 V2000
   33.9740   35.3204   38.0636 O   0  0  0  0  0  0  0  0  0  0  0  0
   35.0905   34.7691   37.9386 C   0  0  0  0  0  0  0  0  0  0  0  0
   35.8545   34.9021   36.9571 O   0  5  0  0  0  0  0  0  0  0  0  0
   35.5640   33.8345   39.0539 C   0  0  0  0  0  0  0  0  0  0  0  0
   36.8091   33.2331   38.7234 O   0  0  0  0  0  0  0  0  0  0  0  0
   37.2965   32.4140   39.6799 C   0  0  0  0  0  0  0  0  0  0  0  0
   36.9251   31.0840   39.8557 C   0  0  0  0  0  0  0  0  0  0  0  0
   35.7830   30.1923   38.6162 Br  0  0  0  0  0  0  0  0  0  0  0  0
   37.4108   30.4480   40.9872 C   0  0  0  0  0  0  0  0  0  0  0  0
   37.1092   29.1227   41.4957 C   0  0  0  0  0  0  0  0  0  0  0  0
   38.1252   28.2611   41.9171 C   0  0  0  0  0  0  0  0  0  0  0  0
   37.8235   26.9816   42.3799 C   0  0  0  0  0  0  0  0  0  0  0  0
   36.4984   26.5476   42.4175 C   0  0  0  0  0  0  0  0  0  0  0  0
   35.4638   27.3956   41.9991 C   0  0  0  0  0  0  0  0  0  0  0  0
   34.1517   26.8979   42.0413 N   0  0  0  0  0  0  0  0  0  0  0  0
   33.8484   25.5055   42.3539 C   0  0  0  0  0  0  0  0  0  0  0  0
   34.2286   24.5487   41.2275 C   0  0  0  0  0  0  0  0  0  0  0  0
   35.7385   24.6377   40.9506 C   0  0  0  0  0  0  0  0  0  0  0  0
   36.1443   23.7323   39.7759 C   0  0  0  0  0  0  0  0  0  0  0  0
   35.3261   24.0552   38.5146 C   0  0  0  0  0  0  0  0  0  0  0  0
   33.8162   23.9662   38.7916 C   0  0  0  0  0  0  0  0  0  0  0  0
   33.4105   24.8716   39.9663 C   0  0  0  0  0  0  0  0  0  0  0  0
   35.7824   28.6807   41.5571 C   0  0  0  0  0  0  0  0  0  0  0  0
   38.5181   31.5153   41.7995 S   0  0  0  0  0  0  0  0  0  0  0  0
   38.2252   32.8033   40.6432 C   0  0  0  0  0  0  0  0  0  0  0  0
   38.9729   34.0657   40.8449 C   0  0  0  0  0  0  0  0  0  0  0  0
   38.7889   35.0057   40.0416 O   0  0  0  0  0  0  0  0  0  0  0  0
   39.7670   34.1607   41.8078 O   0  5  0  0  0  0  0  0  0  0  0  0
   34.8160   33.0573   39.2171 H   0  0  0  0  0  0  0  0  0  0  0  0
   35.6418   34.4146   39.9752 H   0  0  0  0  0  0  0  0  0  0  0  0
   39.1564   28.5821   41.8906 H   0  0  0  0  0  0  0  0  0  0  0  0
   38.6161   26.3267   42.7106 H   0  0  0  0  0  0  0  0  0  0  0  0
   36.2777   25.5521   42.7744 H   0  0  0  0  0  0  0  0  0  0  0  0
   33.4161   27.4513   41.6260 H   0  0  0  0  0  0  0  0  0  0  0  0
   32.8104   25.3678   42.6544 H   0  0  0  0  0  0  0  0  0  0  0  0
   34.4364   25.2561   43.2376 H   0  0  0  0  0  0  0  0  0  0  0  0
   33.9792   23.5477   41.5793 H   0  0  0  0  0  0  0  0  0  0  0  0
   36.0097   25.6697   40.7281 H   0  0  0  0  0  0  0  0  0  0  0  0
   36.2975   24.3604   41.8443 H   0  0  0  0  0  0  0  0  0  0  0  0
   37.2082   23.8465   39.5685 H   0  0  0  0  0  0  0  0  0  0  0  0
   35.9965   22.6878   40.0506 H   0  0  0  0  0  0  0  0  0  0  0  0
   35.5755   25.0562   38.1629 H   0  0  0  0  0  0  0  0  0  0  0  0
   35.5977   23.3718   37.7101 H   0  0  0  0  0  0  0  0  0  0  0  0
   33.2572   24.2435   37.8979 H   0  0  0  0  0  0  0  0  0  0  0  0
   33.5450   22.9343   39.0140 H   0  0  0  0  0  0  0  0  0  0  0  0
   32.3465   24.7574   40.1737 H   0  0  0  0  0  0  0  0  0  0  0  0
   33.5583   25.9161   39.6915 H   0  0  0  0  0  0  0  0  0  0  0  0
   35.0064   29.3572   41.2378 H   0  0  0  0  0  0  0  0  0  0  0  0
  1  2  2  0  0  0  0
  2  3  1  0  0  0  0
  2  4  1  0  0  0  0
  4  5  1  0  0  0  0
  4 29  1  0  0  0  0
  4 30  1  0  0  0  0
  5  6  1  0  0  0  0
  6 25  2  0  0  0  0
  6  7  1  0  0  0  0
  7  8  1  0  0  0  0
  7  9  2  0  0  0  0
  9 10  1  0  0  0  0
  9 24  1  0  0  0  0
 10 23  1  0  0  0  0
 10 11  2  0  0  0  0
 11 12  1  0  0  0  0
 11 31  1  0  0  0  0
 12 13  2  0  0  0  0
 12 32  1  0  0  0  0
 13 14  1  0  0  0  0
 13 33  1  0  0  0  0
 14 15  1  0  0  0  0
 14 23  2  0  0  0  0
 15 16  1  0  0  0  0
 15 34  1  0  0  0  0
 16 17  1  0  0  0  0
 16 35  1  0  0  0  0
 16 36  1  0  0  0  0
 17 22  1  0  0  0  0
 17 18  1  0  0  0  0
 17 37  1  0  0  0  0
 18 19  1  0  0  0  0
 18 38  1  0  0  0  0
 18 39  1  0  0  0  0
 19 20  1  0  0  0  0
 19 40  1  0  0  0  0
 19 41  1  0  0  0  0
 20 21  1  0  0  0  0
 20 42  1  0  0  0  0
 20 43  1  0  0  0  0
 21 22  1  0  0  0  0
 21 44  1  0  0  0  0
 21 45  1  0  0  0  0
 22 46  1  0  0  0  0
 22 47  1  0  0  0  0
 23 48  1  0  0  0  0
 24 25  1  0  0  0  0
 25 26  1  0  0  0  0
 26 27  2  0  0  0  0
 26 28  1  0  0  0  0
M  END
>  <i_m_stars>
2

>  <r_user_dG.exp>
-9.112058

$$$$
23480
  PyMOL2.3          3D                             0

 50 52  0  0  0  0  0  0  0  0999 V2000
   29.1143   22.7176   37.0486 C   0  0  0  0  0  0  0  0  0  0  0  0
   30.0368   23.0937   38.0568 O   0  0  0  0  0  0  0  0  0  0  0  0
   31.3560   23.1166   37.7838 C   0  0  0  0  0  0  0  0  0  0  0  0
   31.8263   22.8326   36.6804 O   0  0  0  0  0  0  0  0  0  0  0  0
   32.0826   23.5033   38.8915 N   0  0  0  0  0  0  0  0  0  0  0  0
   31.4827   23.8602   40.2653 C   0  0  0  0  0  0  0  0  0  0  0  0
   31.9346   25.2534   40.7481 C   0  0  0  0  0  0  0  0  0  0  0  0
   33.4734   25.4166   40.7431 C   0  0  0  0  0  0  0  0  0  0  0  0
   33.8235   26.7887   41.1118 N   0  0  0  0  0  0  0  0  0  0  0  0
   35.1557   27.1743   41.3358 C   0  0  0  0  0  0  0  0  0  0  0  0
   36.1520   26.3074   41.8032 C   0  0  0  0  0  0  0  0  0  0  0  0
   37.4541   26.7715   41.9826 C   0  0  0  0  0  0  0  0  0  0  0  0
   37.7784   28.0920   41.6661 C   0  0  0  0  0  0  0  0  0  0  0  0
   36.7975   28.9755   41.1991 C   0  0  0  0  0  0  0  0  0  0  0  0
   37.1185   30.3463   40.8217 C   0  0  0  0  0  0  0  0  0  0  0  0
   38.3027   31.2780   41.7029 S   0  0  0  0  0  0  0  0  0  0  0  0
   38.0655   32.6839   40.6828 C   0  0  0  0  0  0  0  0  0  0  0  0
   38.8758   33.8820   41.0077 C   0  0  0  0  0  0  0  0  0  0  0  0
   39.6818   33.8210   41.9617 O   0  0  0  0  0  0  0  0  0  0  0  0
   38.7407   34.9191   40.3200 O   0  5  0  0  0  0  0  0  0  0  0  0
   37.1086   32.4331   39.7045 C   0  0  0  0  0  0  0  0  0  0  0  0
   36.6745   33.3491   38.8073 O   0  0  0  0  0  0  0  0  0  0  0  0
   35.8115   34.3542   39.3341 C   0  0  0  0  0  0  0  0  0  0  0  0
   35.0203   35.0462   38.2216 C   0  0  0  0  0  0  0  0  0  0  0  0
   35.6068   35.2305   37.1322 O   0  0  0  0  0  0  0  0  0  0  0  0
   33.8402   35.3727   38.4767 O   0  5  0  0  0  0  0  0  0  0  0  0
   36.6139   31.1344   39.7869 C   0  0  0  0  0  0  0  0  0  0  0  0
   35.2941   30.5152   38.5580 Br  0  0  0  0  0  0  0  0  0  0  0  0
   35.4866   28.5040   41.0799 C   0  0  0  0  0  0  0  0  0  0  0  0
   34.0723   25.0218   39.3689 C   0  0  0  0  0  0  0  0  0  0  0  0
   33.6168   23.6284   38.8947 C   0  0  0  0  0  0  0  0  0  0  0  0
   28.0989   22.7558   37.4430 H   0  0  0  0  0  0  0  0  0  0  0  0
   29.1738   23.3942   36.1952 H   0  0  0  0  0  0  0  0  0  0  0  0
   29.3077   21.7011   36.7038 H   0  0  0  0  0  0  0  0  0  0  0  0
   30.3932   23.8272   40.2573 H   0  0  0  0  0  0  0  0  0  0  0  0
   31.8009   23.1065   40.9856 H   0  0  0  0  0  0  0  0  0  0  0  0
   31.4967   26.0198   40.1084 H   0  0  0  0  0  0  0  0  0  0  0  0
   31.5553   25.4409   41.7527 H   0  0  0  0  0  0  0  0  0  0  0  0
   33.8546   25.2555   39.7347 H   0  0  0  0  0  0  0  0  0  0  0  0
   33.0569   27.4405   41.2005 H   0  0  0  0  0  0  0  0  0  0  0  0
   35.9474   25.2754   42.0336 H   0  0  0  0  0  0  0  0  0  0  0  0
   38.2135   26.1080   42.3692 H   0  0  0  0  0  0  0  0  0  0  0  0
   38.7965   28.4313   41.7898 H   0  0  0  0  0  0  0  0  0  0  0  0
   35.1121   33.8784   40.0219 H   0  0  0  0  0  0  0  0  0  0  0  0
   36.3591   35.0970   39.9168 H   0  0  0  0  0  0  0  0  0  0  0  0
   34.7119   29.1926   40.7743 H   0  0  0  0  0  0  0  0  0  0  0  0
   33.7815   25.7579   38.6195 H   0  0  0  0  0  0  0  0  0  0  0  0
   35.1610   25.0468   39.4152 H   0  0  0  0  0  0  0  0  0  0  0  0
   34.0914   22.8708   39.5184 H   0  0  0  0  0  0  0  0  0  0  0  0
   33.9775   23.4513   37.8815 H   0  0  0  0  0  0  0  0  0  0  0  0
  1  2  1  0  0  0  0
  1 32  1  0  0  0  0
  1 33  1  0  0  0  0
  1 34  1  0  0  0  0
  2  3  1  0  0  0  0
  3  4  2  0  0  0  0
  3  5  1  0  0  0  0
  5 31  1  0  0  0  0
  5  6  1  0  0  0  0
  6  7  1  0  0  0  0
  6 35  1  0  0  0  0
  6 36  1  0  0  0  0
  7  8  1  0  0  0  0
  7 37  1  0  0  0  0
  7 38  1  0  0  0  0
  8  9  1  0  0  0  0
  8 30  1  0  0  0  0
  8 39  1  0  0  0  0
  9 10  1  0  0  0  0
  9 40  1  0  0  0  0
 10 29  1  0  0  0  0
 10 11  2  0  0  0  0
 11 12  1  0  0  0  0
 11 41  1  0  0  0  0
 12 13  2  0  0  0  0
 12 42  1  0  0  0  0
 13 14  1  0  0  0  0
 13 43  1  0  0  0  0
 14 15  1  0  0  0  0
 14 29  2  0  0  0  0
 15 27  2  0  0  0  0
 15 16  1  0  0  0  0
 16 17  1  0  0  0  0
 17 18  1  0  0  0  0
 17 21  2  0  0  0  0
 18 19  2  0  0  0  0
 18 20  1  0  0  0  0
 21 22  1  0  0  0  0
 21 27  1  0  0  0  0
 22 23  1  0  0  0  0
 23 24  1  0  0  0  0
 23 44  1  0  0  0  0
 23 45  1  0  0  0  0
 24 25  2  0  0  0  0
 24 26  1  0  0  0  0
 27 28  1  0  0  0  0
 29 46  1  0  0  0  0
 30 31  1  0  0  0  0
 30 47  1  0  0  0  0
 30 48  1  0  0  0  0
 31 49  1  0  0  0  0
 31 50  1  0  0  0  0
M  END
>  <i_m_stars>
2

>  <r_user_dG.exp>
-8.717548

$$$$
23470
  PyMOL2.3          3D                             0

 42 43  0  0  0  0  0  0  0  0999 V2000
   31.5669   23.7520   41.0374 C   0  0  0  0  0  0  0  0  0  0  0  0
   31.2799   24.7592   42.1621 C   0  0  0  0  0  0  0  0  0  0  0  0
   31.4061   24.1117   43.5475 C   0  0  0  0  0  0  0  0  0  0  0  0
   32.1902   25.8976   42.0734 N   0  0  0  0  0  0  0  0  0  0  0  0
   33.5275   25.8289   42.1511 C   0  0  0  0  0  0  0  0  0  0  0  0
   34.1431   24.7734   42.2980 O   0  0  0  0  0  0  0  0  0  0  0  0
   34.0859   27.0460   42.0314 N   0  0  0  0  0  0  0  0  0  0  0  0
   35.4638   27.3956   41.9991 C   0  0  0  0  0  0  0  0  0  0  0  0
   36.4984   26.5476   42.4175 C   0  0  0  0  0  0  0  0  0  0  0  0
   37.8235   26.9816   42.3799 C   0  0  0  0  0  0  0  0  0  0  0  0
   38.1252   28.2611   41.9171 C   0  0  0  0  0  0  0  0  0  0  0  0
   37.1092   29.1227   41.4957 C   0  0  0  0  0  0  0  0  0  0  0  0
   37.4108   30.4480   40.9872 C   0  0  0  0  0  0  0  0  0  0  0  0
   38.5181   31.5153   41.7995 S   0  0  0  0  0  0  0  0  0  0  0  0
   38.2252   32.8033   40.6432 C   0  0  0  0  0  0  0  0  0  0  0  0
   38.9686   34.0676   40.8578 C   0  0  0  0  0  0  0  0  0  0  0  0
   39.7612   34.1417   41.8221 O   0  0  0  0  0  0  0  0  0  0  0  0
   38.7924   35.0243   40.0703 O   0  5  0  0  0  0  0  0  0  0  0  0
   37.2965   32.4140   39.6799 C   0  0  0  0  0  0  0  0  0  0  0  0
   36.7923   33.2344   38.7285 O   0  0  0  0  0  0  0  0  0  0  0  0
   35.5900   33.9125   39.0859 C   0  0  0  0  0  0  0  0  0  0  0  0
   35.1159   34.8347   37.9602 C   0  0  0  0  0  0  0  0  0  0  0  0
   35.8096   34.8706   36.9198 O   0  0  0  0  0  0  0  0  0  0  0  0
   34.0641   35.4825   38.1556 O   0  5  0  0  0  0  0  0  0  0  0  0
   36.9251   31.0840   39.8557 C   0  0  0  0  0  0  0  0  0  0  0  0
   35.7763   30.2297   38.5961 Br  0  0  0  0  0  0  0  0  0  0  0  0
   35.7824   28.6807   41.5571 C   0  0  0  0  0  0  0  0  0  0  0  0
   31.4394   24.2081   40.0551 H   0  0  0  0  0  0  0  0  0  0  0  0
   32.5861   23.3688   41.0972 H   0  0  0  0  0  0  0  0  0  0  0  0
   30.8879   22.9007   41.0924 H   0  0  0  0  0  0  0  0  0  0  0  0
   30.2537   25.1157   42.0551 H   0  0  0  0  0  0  0  0  0  0  0  0
   31.1788   24.8273   44.3383 H   0  0  0  0  0  0  0  0  0  0  0  0
   30.7140   23.2758   43.6530 H   0  0  0  0  0  0  0  0  0  0  0  0
   32.4139   23.7319   43.7199 H   0  0  0  0  0  0  0  0  0  0  0  0
   31.7661   26.8035   41.9403 H   0  0  0  0  0  0  0  0  0  0  0  0
   33.4477   27.8148   41.8910 H   0  0  0  0  0  0  0  0  0  0  0  0
   36.3016   25.5535   42.7874 H   0  0  0  0  0  0  0  0  0  0  0  0
   38.6140   26.3268   42.7161 H   0  0  0  0  0  0  0  0  0  0  0  0
   39.1550   28.5870   41.8978 H   0  0  0  0  0  0  0  0  0  0  0  0
   34.8203   33.1651   39.2792 H   0  0  0  0  0  0  0  0  0  0  0  0
   35.7037   34.4832   40.0093 H   0  0  0  0  0  0  0  0  0  0  0  0
   34.9901   29.3462   41.2455 H   0  0  0  0  0  0  0  0  0  0  0  0
  1  2  1  0  0  0  0
  1 28  1  0  0  0  0
  1 29  1  0  0  0  0
  1 30  1  0  0  0  0
  2  3  1  0  0  0  0
  2  4  1  0  0  0  0
  2 31  1  0  0  0  0
  3 32  1  0  0  0  0
  3 33  1  0  0  0  0
  3 34  1  0  0  0  0
  4  5  1  0  0  0  0
  4 35  1  0  0  0  0
  5  6  2  0  0  0  0
  5  7  1  0  0  0  0
  7  8  1  0  0  0  0
  7 36  1  0  0  0  0
  8 27  1  0  0  0  0
  8  9  2  0  0  0  0
  9 10  1  0  0  0  0
  9 37  1  0  0  0  0
 10 11  2  0  0  0  0
 10 38  1  0  0  0  0
 11 12  1  0  0  0  0
 11 39  1  0  0  0  0
 12 13  1  0  0  0  0
 12 27  2  0  0  0  0
 13 25  2  0  0  0  0
 13 14  1  0  0  0  0
 14 15  1  0  0  0  0
 15 16  1  0  0  0  0
 15 19  2  0  0  0  0
 16 17  2  0  0  0  0
 16 18  1  0  0  0  0
 19 20  1  0  0  0  0
 19 25  1  0  0  0  0
 20 21  1  0  0  0  0
 21 22  1  0  0  0  0
 21 40  1  0  0  0  0
 21 41  1  0  0  0  0
 22 23  2  0  0  0  0
 22 24  1  0  0  0  0
 25 26  1  0  0  0  0
 27 42  1  0  0  0  0
M  END
>  <i_m_stars>
2

>  <r_user_dG.exp>
-7.723019

$$$$
23486
  PyMOL2.3          3D                             0

 60 63  0  0  0  0  0  0  0  0999 V2000
   36.0820   35.2667   36.7755 O   0  0  0  0  0  0  0  0  0  0  0  0
   35.3269   35.1644   37.7681 C   0  0  0  0  0  0  0  0  0  0  0  0
   34.2802   35.8252   37.9477 O   0  5  0  0  0  0  0  0  0  0  0  0
   35.7106   34.1798   38.8748 C   0  0  0  0  0  0  0  0  0  0  0  0
   36.8943   33.4654   38.5432 O   0  0  0  0  0  0  0  0  0  0  0  0
   37.2837   32.5856   39.4911 C   0  0  0  0  0  0  0  0  0  0  0  0
   36.8353   31.2713   39.5934 C   0  0  0  0  0  0  0  0  0  0  0  0
   35.8205   30.6281   38.3860 Cl  0  0  0  0  0  0  0  0  0  0  0  0
   37.2466   30.5574   40.7111 C   0  0  0  0  0  0  0  0  0  0  0  0
   36.8809   29.2179   41.1479 C   0  0  0  0  0  0  0  0  0  0  0  0
   37.8439   28.3324   41.6409 C   0  0  0  0  0  0  0  0  0  0  0  0
   37.4909   27.0437   42.0389 C   0  0  0  0  0  0  0  0  0  0  0  0
   36.1675   26.6180   41.9317 C   0  0  0  0  0  0  0  0  0  0  0  0
   35.1857   27.4851   41.4352 C   0  0  0  0  0  0  0  0  0  0  0  0
   33.8369   27.1147   41.2835 N   0  0  0  0  0  0  0  0  0  0  0  0
   33.4701   25.7307   40.9905 C   0  0  0  0  0  0  0  0  0  0  0  0
   31.9290   25.5813   40.9803 C   0  0  0  0  0  0  0  0  0  0  0  0
   31.4694   24.1792   40.5356 C   0  0  0  0  0  0  0  0  0  0  0  0
   32.1130   23.7975   39.2701 N   0  0  0  0  0  0  0  0  0  0  0  0
   31.2665   22.8855   38.0837 S   0  0  0  0  0  0  0  0  0  0  0  0
   32.0543   22.9503   36.8451 O   0  0  0  0  0  0  0  0  0  0  0  0
   29.8590   23.3211   38.0919 O   0  0  0  0  0  0  0  0  0  0  0  0
   31.3673   21.1616   38.7399 C   0  0  0  0  0  0  0  0  0  0  0  0
   30.8716   20.2109   37.6680 C   0  0  0  0  0  0  0  0  0  0  0  0
   29.5079   19.9206   37.5658 C   0  0  0  0  0  0  0  0  0  0  0  0
   29.0464   19.0803   36.5534 C   0  0  0  0  0  0  0  0  0  0  0  0
   29.9468   18.5294   35.6429 C   0  0  0  0  0  0  0  0  0  0  0  0
   31.3099   18.8068   35.7455 C   0  0  0  0  0  0  0  0  0  0  0  0
   31.7728   19.6449   36.7595 C   0  0  0  0  0  0  0  0  0  0  0  0
   33.5826   23.8493   39.2550 C   0  0  0  0  0  0  0  0  0  0  0  0
   34.0778   25.2492   39.6482 C   0  0  0  0  0  0  0  0  0  0  0  0
   35.5509   28.7826   41.0697 C   0  0  0  0  0  0  0  0  0  0  0  0
   38.3692   31.5417   41.6107 S   0  0  0  0  0  0  0  0  0  0  0  0
   38.1767   32.8934   40.5081 C   0  0  0  0  0  0  0  0  0  0  0  0
   38.9604   34.1150   40.8060 C   0  0  0  0  0  0  0  0  0  0  0  0
   39.7114   34.1172   41.8055 O   0  0  0  0  0  0  0  0  0  0  0  0
   38.8541   35.1104   40.0546 O   0  5  0  0  0  0  0  0  0  0  0  0
   34.8867   33.4820   39.0300 H   0  0  0  0  0  0  0  0  0  0  0  0
   35.8484   34.7363   39.8035 H   0  0  0  0  0  0  0  0  0  0  0  0
   38.8757   28.6421   41.7230 H   0  0  0  0  0  0  0  0  0  0  0  0
   38.2430   26.3744   42.4298 H   0  0  0  0  0  0  0  0  0  0  0  0
   35.9125   25.6124   42.2332 H   0  0  0  0  0  0  0  0  0  0  0  0
   33.1423   27.8334   41.4280 H   0  0  0  0  0  0  0  0  0  0  0  0
   33.8768   25.1297   41.8037 H   0  0  0  0  0  0  0  0  0  0  0  0
   31.5248   25.8012   41.9685 H   0  0  0  0  0  0  0  0  0  0  0  0
   31.5001   26.3244   40.3080 H   0  0  0  0  0  0  0  0  0  0  0  0
   31.7170   23.4286   41.2862 H   0  0  0  0  0  0  0  0  0  0  0  0
   30.3846   24.1506   40.4335 H   0  0  0  0  0  0  0  0  0  0  0  0
   32.4138   20.9583   38.9673 H   0  0  0  0  0  0  0  0  0  0  0  0
   30.8161   21.1058   39.6783 H   0  0  0  0  0  0  0  0  0  0  0  0
   28.8100   20.3408   38.2750 H   0  0  0  0  0  0  0  0  0  0  0  0
   27.9926   18.8567   36.4760 H   0  0  0  0  0  0  0  0  0  0  0  0
   29.5887   17.8885   34.8509 H   0  0  0  0  0  0  0  0  0  0  0  0
   32.0031   18.3739   35.0396 H   0  0  0  0  0  0  0  0  0  0  0  0
   32.8299   19.8516   36.8386 H   0  0  0  0  0  0  0  0  0  0  0  0
   33.9464   23.0828   39.9391 H   0  0  0  0  0  0  0  0  0  0  0  0
   33.9489   23.5652   38.2685 H   0  0  0  0  0  0  0  0  0  0  0  0
   33.8168   25.9564   38.8610 H   0  0  0  0  0  0  0  0  0  0  0  0
   35.1662   25.2531   39.7070 H   0  0  0  0  0  0  0  0  0  0  0  0
   34.8198   29.4832   40.7057 H   0  0  0  0  0  0  0  0  0  0  0  0
  1  2  2  0  0  0  0
  2  3  1  0  0  0  0
  2  4  1  0  0  0  0
  4  5  1  0  0  0  0
  4 38  1  0  0  0  0
  4 39  1  0  0  0  0
  5  6  1  0  0  0  0
  6 34  2  0  0  0  0
  6  7  1  0  0  0  0
  7  8  1  0  0  0  0
  7  9  2  0  0  0  0
  9 10  1  0  0  0  0
  9 33  1  0  0  0  0
 10 32  1  0  0  0  0
 10 11  2  0  0  0  0
 11 12  1  0  0  0  0
 11 40  1  0  0  0  0
 12 13  2  0  0  0  0
 12 41  1  0  0  0  0
 13 14  1  0  0  0  0
 13 42  1  0  0  0  0
 14 15  1  0  0  0  0
 14 32  2  0  0  0  0
 15 16  1  0  0  0  0
 15 43  1  0  0  0  0
 16 31  1  0  0  0  0
 16 17  1  0  0  0  0
 16 44  1  0  0  0  0
 17 18  1  0  0  0  0
 17 45  1  0  0  0  0
 17 46  1  0  0  0  0
 18 19  1  0  0  0  0
 18 47  1  0  0  0  0
 18 48  1  0  0  0  0
 19 20  1  0  0  0  0
 19 30  1  0  0  0  0
 20 21  2  0  0  0  0
 20 22  2  0  0  0  0
 20 23  1  0  0  0  0
 23 24  1  0  0  0  0
 23 49  1  0  0  0  0
 23 50  1  0  0  0  0
 24 29  1  0  0  0  0
 24 25  2  0  0  0  0
 25 26  1  0  0  0  0
 25 51  1  0  0  0  0
 26 27  2  0  0  0  0
 26 52  1  0  0  0  0
 27 28  1  0  0  0  0
 27 53  1  0  0  0  0
 28 29  2  0  0  0  0
 28 54  1  0  0  0  0
 29 55  1  0  0  0  0
 30 31  1  0  0  0  0
 30 56  1  0  0  0  0
 30 57  1  0  0  0  0
 31 58  1  0  0  0  0
 31 59  1  0  0  0  0
 32 60  1  0  0  0  0
 33 34  1  0  0  0  0
 34 35  1  0  0  0  0
 35 36  2  0  0  0  0
 35 37  1  0  0  0  0
M  END
>  <i_m_stars>
2

>  <r_user_dG.exp>
-12.469785

$$$$
20669(2qbr)
  PyMOL2.3          3D                             0

 42 44  0  0  0  0  0  0  0  0999 V2000
   34.0068   35.2463   37.8760 O   0  0  0  0  0  0  0  0  0  0  0  0
   35.0969   34.6409   37.7698 C   0  0  0  0  0  0  0  0  0  0  0  0
   35.8659   34.7075   36.7856 O   0  5  0  0  0  0  0  0  0  0  0  0
   35.5536   33.7644   38.9382 C   0  0  0  0  0  0  0  0  0  0  0  0
   36.8439   33.2195   38.6951 O   0  0  0  0  0  0  0  0  0  0  0  0
   37.2965   32.4140   39.6799 C   0  0  0  0  0  0  0  0  0  0  0  0
   36.9251   31.0840   39.8557 C   0  0  0  0  0  0  0  0  0  0  0  0
   35.8285   30.1739   38.5893 Br  0  0  0  0  0  0  0  0  0  0  0  0
   37.4108   30.4480   40.9872 C   0  0  0  0  0  0  0  0  0  0  0  0
   37.1092   29.1227   41.4957 C   0  0  0  0  0  0  0  0  0  0  0  0
   38.1252   28.2611   41.9171 C   0  0  0  0  0  0  0  0  0  0  0  0
   37.8235   26.9816   42.3799 C   0  0  0  0  0  0  0  0  0  0  0  0
   36.4984   26.5476   42.4175 C   0  0  0  0  0  0  0  0  0  0  0  0
   35.4638   27.3956   41.9991 C   0  0  0  0  0  0  0  0  0  0  0  0
   34.1053   27.0356   42.0209 N   0  0  0  0  0  0  0  0  0  0  0  0
   33.6485   25.6489   42.0134 C   0  0  0  0  0  0  0  0  0  0  0  0
   33.5846   25.0548   40.6123 C   0  0  0  0  0  0  0  0  0  0  0  0
   34.7502   24.6482   39.9532 C   0  0  0  0  0  0  0  0  0  0  0  0
   34.6781   24.0873   38.6779 C   0  0  0  0  0  0  0  0  0  0  0  0
   33.4415   23.9113   38.0617 C   0  0  0  0  0  0  0  0  0  0  0  0
   32.2761   24.3127   38.7126 C   0  0  0  0  0  0  0  0  0  0  0  0
   32.3459   24.8861   39.9827 C   0  0  0  0  0  0  0  0  0  0  0  0
   35.7824   28.6807   41.5571 C   0  0  0  0  0  0  0  0  0  0  0  0
   38.5181   31.5153   41.7995 S   0  0  0  0  0  0  0  0  0  0  0  0
   38.2252   32.8033   40.6432 C   0  0  0  0  0  0  0  0  0  0  0  0
   38.9730   34.0656   40.8448 C   0  0  0  0  0  0  0  0  0  0  0  0
   38.7858   35.0072   40.0439 O   0  0  0  0  0  0  0  0  0  0  0  0
   39.7686   34.1601   41.8064 O   0  5  0  0  0  0  0  0  0  0  0  0
   35.5760   34.3609   39.8512 H   0  0  0  0  0  0  0  0  0  0  0  0
   34.8152   32.9733   39.0803 H   0  0  0  0  0  0  0  0  0  0  0  0
   39.1570   28.5796   41.8817 H   0  0  0  0  0  0  0  0  0  0  0  0
   38.6172   26.3264   42.7077 H   0  0  0  0  0  0  0  0  0  0  0  0
   36.2925   25.5500   42.7747 H   0  0  0  0  0  0  0  0  0  0  0  0
   33.3951   27.7506   42.0881 H   0  0  0  0  0  0  0  0  0  0  0  0
   34.3272   25.0422   42.6140 H   0  0  0  0  0  0  0  0  0  0  0  0
   32.6649   25.5934   42.4815 H   0  0  0  0  0  0  0  0  0  0  0  0
   35.7122   24.7668   40.4304 H   0  0  0  0  0  0  0  0  0  0  0  0
   35.5820   23.7887   38.1677 H   0  0  0  0  0  0  0  0  0  0  0  0
   33.3855   23.4635   37.0805 H   0  0  0  0  0  0  0  0  0  0  0  0
   31.3174   24.1798   38.2334 H   0  0  0  0  0  0  0  0  0  0  0  0
   31.4374   25.2003   40.4755 H   0  0  0  0  0  0  0  0  0  0  0  0
   34.9868   29.3494   41.2619 H   0  0  0  0  0  0  0  0  0  0  0  0
  1  2  2  0  0  0  0
  2  3  1  0  0  0  0
  2  4  1  0  0  0  0
  4  5  1  0  0  0  0
  4 29  1  0  0  0  0
  4 30  1  0  0  0  0
  5  6  1  0  0  0  0
  6 25  2  0  0  0  0
  6  7  1  0  0  0  0
  7  8  1  0  0  0  0
  7  9  2  0  0  0  0
  9 10  1  0  0  0  0
  9 24  1  0  0  0  0
 10 23  1  0  0  0  0
 10 11  2  0  0  0  0
 11 12  1  0  0  0  0
 11 31  1  0  0  0  0
 12 13  2  0  0  0  0
 12 32  1  0  0  0  0
 13 14  1  0  0  0  0
 13 33  1  0  0  0  0
 14 15  1  0  0  0  0
 14 23  2  0  0  0  0
 15 16  1  0  0  0  0
 15 34  1  0  0  0  0
 16 17  1  0  0  0  0
 16 35  1  0  0  0  0
 16 36  1  0  0  0  0
 17 22  1  0  0  0  0
 17 18  2  0  0  0  0
 18 19  1  0  0  0  0
 18 37  1  0  0  0  0
 19 20  2  0  0  0  0
 19 38  1  0  0  0  0
 20 21  1  0  0  0  0
 20 39  1  0  0  0  0
 21 22  2  0  0  0  0
 21 40  1  0  0  0  0
 22 41  1  0  0  0  0
 23 42  1  0  0  0  0
 24 25  1  0  0  0  0
 25 26  1  0  0  0  0
 26 27  2  0  0  0  0
 26 28  1  0  0  0  0
M  END
>  <i_m_stars>
3

>  <r_user_dG.exp>
-8.607325

$$$$
23482
  PyMOL2.3          3D                             0

 50 52  0  0  0  0  0  0  0  0999 V2000
   31.3440   21.3665   38.6494 C   0  0  0  0  0  0  0  0  0  0  0  0
   31.3558   23.1376   38.1561 S   0  0  0  0  0  0  0  0  0  0  0  0
   29.9768   23.6480   38.1677 O   0  0  0  0  0  0  0  0  0  0  0  0
   32.1676   23.2514   36.9349 O   0  0  0  0  0  0  0  0  0  0  0  0
   32.1130   23.7975   39.2701 N   0  0  0  0  0  0  0  0  0  0  0  0
   31.4694   24.1792   40.5356 C   0  0  0  0  0  0  0  0  0  0  0  0
   31.9290   25.5813   40.9803 C   0  0  0  0  0  0  0  0  0  0  0  0
   33.4701   25.7307   40.9905 C   0  0  0  0  0  0  0  0  0  0  0  0
   33.8369   27.1147   41.2835 N   0  0  0  0  0  0  0  0  0  0  0  0
   35.1857   27.4851   41.4352 C   0  0  0  0  0  0  0  0  0  0  0  0
   36.1675   26.6180   41.9317 C   0  0  0  0  0  0  0  0  0  0  0  0
   37.4909   27.0437   42.0389 C   0  0  0  0  0  0  0  0  0  0  0  0
   37.8439   28.3324   41.6409 C   0  0  0  0  0  0  0  0  0  0  0  0
   36.8809   29.2179   41.1479 C   0  0  0  0  0  0  0  0  0  0  0  0
   37.2466   30.5574   40.7111 C   0  0  0  0  0  0  0  0  0  0  0  0
   38.3692   31.5417   41.6107 S   0  0  0  0  0  0  0  0  0  0  0  0
   38.1767   32.8934   40.5081 C   0  0  0  0  0  0  0  0  0  0  0  0
   38.9711   34.1090   40.8056 C   0  0  0  0  0  0  0  0  0  0  0  0
   39.7178   34.1076   41.8086 O   0  0  0  0  0  0  0  0  0  0  0  0
   38.8724   35.1056   40.0549 O   0  5  0  0  0  0  0  0  0  0  0  0
   37.2837   32.5856   39.4911 C   0  0  0  0  0  0  0  0  0  0  0  0
   36.9284   33.4385   38.5018 O   0  0  0  0  0  0  0  0  0  0  0  0
   35.7333   34.1792   38.7381 C   0  0  0  0  0  0  0  0  0  0  0  0
   35.2032   34.8057   37.4463 C   0  0  0  0  0  0  0  0  0  0  0  0
   33.9621   34.9008   37.3237 O   0  0  0  0  0  0  0  0  0  0  0  0
   36.0485   35.1855   36.6060 O   0  5  0  0  0  0  0  0  0  0  0  0
   36.8353   31.2713   39.5934 C   0  0  0  0  0  0  0  0  0  0  0  0
   35.7416   30.5189   38.2246 Br  0  0  0  0  0  0  0  0  0  0  0  0
   35.5509   28.7826   41.0697 C   0  0  0  0  0  0  0  0  0  0  0  0
   34.0778   25.2492   39.6482 C   0  0  0  0  0  0  0  0  0  0  0  0
   33.5826   23.8493   39.2550 C   0  0  0  0  0  0  0  0  0  0  0  0
   30.7620   21.2354   39.5601 H   0  0  0  0  0  0  0  0  0  0  0  0
   30.8933   20.7772   37.8515 H   0  0  0  0  0  0  0  0  0  0  0  0
   32.3668   21.0293   38.8142 H   0  0  0  0  0  0  0  0  0  0  0  0
   30.3910   24.1361   40.3829 H   0  0  0  0  0  0  0  0  0  0  0  0
   31.6913   23.4333   41.2989 H   0  0  0  0  0  0  0  0  0  0  0  0
   31.4902   26.3392   40.3313 H   0  0  0  0  0  0  0  0  0  0  0  0
   31.5478   25.7853   41.9809 H   0  0  0  0  0  0  0  0  0  0  0  0
   33.8690   25.5113   40.0001 H   0  0  0  0  0  0  0  0  0  0  0  0
   33.0741   27.7725   41.3614 H   0  0  0  0  0  0  0  0  0  0  0  0
   35.9393   25.6128   42.2412 H   0  0  0  0  0  0  0  0  0  0  0  0
   38.2416   26.3726   42.4293 H   0  0  0  0  0  0  0  0  0  0  0  0
   38.8760   28.6440   41.7105 H   0  0  0  0  0  0  0  0  0  0  0  0
   34.9574   33.5647   39.1980 H   0  0  0  0  0  0  0  0  0  0  0  0
   35.9585   34.9737   39.4498 H   0  0  0  0  0  0  0  0  0  0  0  0
   34.7909   29.4685   40.7240 H   0  0  0  0  0  0  0  0  0  0  0  0
   33.8448   25.9598   38.8552 H   0  0  0  0  0  0  0  0  0  0  0  0
   35.1647   25.2355   39.7299 H   0  0  0  0  0  0  0  0  0  0  0  0
   33.9828   23.0879   39.9243 H   0  0  0  0  0  0  0  0  0  0  0  0
   33.9120   23.5683   38.2546 H   0  0  0  0  0  0  0  0  0  0  0  0
  1  2  1  0  0  0  0
  1 32  1  0  0  0  0
  1 33  1  0  0  0  0
  1 34  1  0  0  0  0
  2  3  2  0  0  0  0
  2  4  2  0  0  0  0
  2  5  1  0  0  0  0
  5 31  1  0  0  0  0
  5  6  1  0  0  0  0
  6  7  1  0  0  0  0
  6 35  1  0  0  0  0
  6 36  1  0  0  0  0
  7  8  1  0  0  0  0
  7 37  1  0  0  0  0
  7 38  1  0  0  0  0
  8  9  1  0  0  0  0
  8 30  1  0  0  0  0
  8 39  1  0  0  0  0
  9 10  1  0  0  0  0
  9 40  1  0  0  0  0
 10 29  1  0  0  0  0
 10 11  2  0  0  0  0
 11 12  1  0  0  0  0
 11 41  1  0  0  0  0
 12 13  2  0  0  0  0
 12 42  1  0  0  0  0
 13 14  1  0  0  0  0
 13 43  1  0  0  0  0
 14 15  1  0  0  0  0
 14 29  2  0  0  0  0
 15 27  2  0  0  0  0
 15 16  1  0  0  0  0
 16 17  1  0  0  0  0
 17 18  1  0  0  0  0
 17 21  2  0  0  0  0
 18 19  2  0  0  0  0
 18 20  1  0  0  0  0
 21 22  1  0  0  0  0
 21 27  1  0  0  0  0
 22 23  1  0  0  0  0
 23 24  1  0  0  0  0
 23 44  1  0  0  0  0
 23 45  1  0  0  0  0
 24 25  2  0  0  0  0
 24 26  1  0  0  0  0
 27 28  1  0  0  0  0
 29 46  1  0  0  0  0
 30 31  1  0  0  0  0
 30 47  1  0  0  0  0
 30 48  1  0  0  0  0
 31 49  1  0  0  0  0
 31 50  1  0  0  0  0
M  END
>  <i_m_stars>
2

>  <r_user_dG.exp>
-10.006507

$$$$
23483
  PyMOL2.3          3D                             0

 57 60  0  0  0  0  0  0  0  0999 V2000
   36.2016   35.1258   36.6009 O   0  0  0  0  0  0  0  0  0  0  0  0
   35.3417   35.0052   37.5012 C   0  0  0  0  0  0  0  0  0  0  0  0
   34.2459   35.6068   37.5405 O   0  5  0  0  0  0  0  0  0  0  0  0
   35.6651   34.0737   38.6719 C   0  0  0  0  0  0  0  0  0  0  0  0
   36.9312   33.4398   38.5025 O   0  0  0  0  0  0  0  0  0  0  0  0
   37.2837   32.5856   39.4911 C   0  0  0  0  0  0  0  0  0  0  0  0
   36.8353   31.2713   39.5934 C   0  0  0  0  0  0  0  0  0  0  0  0
   35.7426   30.4687   38.2530 Br  0  0  0  0  0  0  0  0  0  0  0  0
   37.2466   30.5574   40.7111 C   0  0  0  0  0  0  0  0  0  0  0  0
   36.8809   29.2179   41.1479 C   0  0  0  0  0  0  0  0  0  0  0  0
   37.8439   28.3324   41.6409 C   0  0  0  0  0  0  0  0  0  0  0  0
   37.4909   27.0437   42.0389 C   0  0  0  0  0  0  0  0  0  0  0  0
   36.1675   26.6180   41.9317 C   0  0  0  0  0  0  0  0  0  0  0  0
   35.1857   27.4851   41.4352 C   0  0  0  0  0  0  0  0  0  0  0  0
   33.8369   27.1147   41.2835 N   0  0  0  0  0  0  0  0  0  0  0  0
   33.4701   25.7307   40.9905 C   0  0  0  0  0  0  0  0  0  0  0  0
   31.9290   25.5813   40.9803 C   0  0  0  0  0  0  0  0  0  0  0  0
   31.4694   24.1792   40.5356 C   0  0  0  0  0  0  0  0  0  0  0  0
   32.1130   23.7975   39.2701 N   0  0  0  0  0  0  0  0  0  0  0  0
   31.3066   23.6363   38.0157 S   0  0  0  0  0  0  0  0  0  0  0  0
   30.0668   24.4143   38.1644 O   0  0  0  0  0  0  0  0  0  0  0  0
   32.2043   23.8725   36.8745 O   0  0  0  0  0  0  0  0  0  0  0  0
   30.9188   21.8912   38.0344 C   0  0  0  0  0  0  0  0  0  0  0  0
   31.9681   20.9525   37.9774 C   0  0  0  0  0  0  0  0  0  0  0  0
   31.6726   19.5756   38.0104 C   0  0  0  0  0  0  0  0  0  0  0  0
   30.3341   19.1438   38.1020 C   0  0  0  0  0  0  0  0  0  0  0  0
   29.2884   20.0872   38.1620 C   0  0  0  0  0  0  0  0  0  0  0  0
   29.5789   21.4652   38.1311 C   0  0  0  0  0  0  0  0  0  0  0  0
   33.5826   23.8493   39.2550 C   0  0  0  0  0  0  0  0  0  0  0  0
   34.0778   25.2492   39.6482 C   0  0  0  0  0  0  0  0  0  0  0  0
   35.5509   28.7826   41.0697 C   0  0  0  0  0  0  0  0  0  0  0  0
   38.3692   31.5417   41.6107 S   0  0  0  0  0  0  0  0  0  0  0  0
   38.1767   32.8934   40.5081 C   0  0  0  0  0  0  0  0  0  0  0  0
   38.9690   34.1111   40.8040 C   0  0  0  0  0  0  0  0  0  0  0  0
   39.7209   34.1106   41.8030 O   0  0  0  0  0  0  0  0  0  0  0  0
   38.8647   35.1081   40.0545 O   0  5  0  0  0  0  0  0  0  0  0  0
   34.8556   33.3527   38.8047 H   0  0  0  0  0  0  0  0  0  0  0  0
   35.7020   34.6700   39.5836 H   0  0  0  0  0  0  0  0  0  0  0  0
   38.8772   28.6389   41.7149 H   0  0  0  0  0  0  0  0  0  0  0  0
   38.2435   26.3752   42.4304 H   0  0  0  0  0  0  0  0  0  0  0  0
   35.9108   25.6137   42.2360 H   0  0  0  0  0  0  0  0  0  0  0  0
   33.1380   27.8289   41.4291 H   0  0  0  0  0  0  0  0  0  0  0  0
   33.8768   25.1297   41.8037 H   0  0  0  0  0  0  0  0  0  0  0  0
   31.5248   25.8012   41.9685 H   0  0  0  0  0  0  0  0  0  0  0  0
   31.5001   26.3244   40.3080 H   0  0  0  0  0  0  0  0  0  0  0  0
   31.7170   23.4286   41.2862 H   0  0  0  0  0  0  0  0  0  0  0  0
   30.3846   24.1506   40.4335 H   0  0  0  0  0  0  0  0  0  0  0  0
   32.9926   21.2873   37.9082 H   0  0  0  0  0  0  0  0  0  0  0  0
   32.4722   18.8509   37.9648 H   0  0  0  0  0  0  0  0  0  0  0  0
   30.1087   18.0878   38.1254 H   0  0  0  0  0  0  0  0  0  0  0  0
   28.2632   19.7545   38.2300 H   0  0  0  0  0  0  0  0  0  0  0  0
   28.7759   22.1865   38.1730 H   0  0  0  0  0  0  0  0  0  0  0  0
   33.9464   23.0828   39.9391 H   0  0  0  0  0  0  0  0  0  0  0  0
   33.9489   23.5652   38.2685 H   0  0  0  0  0  0  0  0  0  0  0  0
   33.8168   25.9564   38.8610 H   0  0  0  0  0  0  0  0  0  0  0  0
   35.1662   25.2531   39.7070 H   0  0  0  0  0  0  0  0  0  0  0  0
   34.8213   29.4925   40.7233 H   0  0  0  0  0  0  0  0  0  0  0  0
  1  2  2  0  0  0  0
  2  3  1  0  0  0  0
  2  4  1  0  0  0  0
  4  5  1  0  0  0  0
  4 37  1  0  0  0  0
  4 38  1  0  0  0  0
  5  6  1  0  0  0  0
  6 33  2  0  0  0  0
  6  7  1  0  0  0  0
  7  8  1  0  0  0  0
  7  9  2  0  0  0  0
  9 10  1  0  0  0  0
  9 32  1  0  0  0  0
 10 31  1  0  0  0  0
 10 11  2  0  0  0  0
 11 12  1  0  0  0  0
 11 39  1  0  0  0  0
 12 13  2  0  0  0  0
 12 40  1  0  0  0  0
 13 14  1  0  0  0  0
 13 41  1  0  0  0  0
 14 15  1  0  0  0  0
 14 31  2  0  0  0  0
 15 16  1  0  0  0  0
 15 42  1  0  0  0  0
 16 30  1  0  0  0  0
 16 17  1  0  0  0  0
 16 43  1  0  0  0  0
 17 18  1  0  0  0  0
 17 44  1  0  0  0  0
 17 45  1  0  0  0  0
 18 19  1  0  0  0  0
 18 46  1  0  0  0  0
 18 47  1  0  0  0  0
 19 20  1  0  0  0  0
 19 29  1  0  0  0  0
 20 21  2  0  0  0  0
 20 22  2  0  0  0  0
 20 23  1  0  0  0  0
 23 28  1  0  0  0  0
 23 24  2  0  0  0  0
 24 25  1  0  0  0  0
 24 48  1  0  0  0  0
 25 26  2  0  0  0  0
 25 49  1  0  0  0  0
 26 27  1  0  0  0  0
 26 50  1  0  0  0  0
 27 28  2  0  0  0  0
 27 51  1  0  0  0  0
 28 52  1  0  0  0  0
 29 30  1  0  0  0  0
 29 53  1  0  0  0  0
 29 54  1  0  0  0  0
 30 55  1  0  0  0  0
 30 56  1  0  0  0  0
 31 57  1  0  0  0  0
 32 33  1  0  0  0  0
 33 34  1  0  0  0  0
 34 35  2  0  0  0  0
 34 36  1  0  0  0  0
M  END
>  <i_m_stars>
2

>  <r_user_dG.exp>
-9.874688

$$$$
23473
  PyMOL2.3          3D                             0

 41 43  0  0  0  0  0  0  0  0999 V2000
   35.8354   34.7134   36.7611 O   0  0  0  0  0  0  0  0  0  0  0  0
   35.0976   34.6413   37.7694 C   0  0  0  0  0  0  0  0  0  0  0  0
   33.9943   35.2162   37.8981 O   0  5  0  0  0  0  0  0  0  0  0  0
   35.5539   33.7644   38.9376 C   0  0  0  0  0  0  0  0  0  0  0  0
   36.8442   33.2194   38.6950 O   0  0  0  0  0  0  0  0  0  0  0  0
   37.2965   32.4140   39.6799 C   0  0  0  0  0  0  0  0  0  0  0  0
   36.9251   31.0840   39.8557 C   0  0  0  0  0  0  0  0  0  0  0  0
   35.8291   30.1737   38.5889 Br  0  0  0  0  0  0  0  0  0  0  0  0
   37.4108   30.4480   40.9872 C   0  0  0  0  0  0  0  0  0  0  0  0
   37.1092   29.1227   41.4957 C   0  0  0  0  0  0  0  0  0  0  0  0
   38.1252   28.2611   41.9171 C   0  0  0  0  0  0  0  0  0  0  0  0
   37.8235   26.9816   42.3799 C   0  0  0  0  0  0  0  0  0  0  0  0
   36.4984   26.5476   42.4175 C   0  0  0  0  0  0  0  0  0  0  0  0
   35.4638   27.3956   41.9991 C   0  0  0  0  0  0  0  0  0  0  0  0
   34.1053   27.0356   42.0209 O   0  0  0  0  0  0  0  0  0  0  0  0
   33.6485   25.6489   42.0134 C   0  0  0  0  0  0  0  0  0  0  0  0
   33.5846   25.0548   40.6123 C   0  0  0  0  0  0  0  0  0  0  0  0
   34.7502   24.6482   39.9532 C   0  0  0  0  0  0  0  0  0  0  0  0
   34.6781   24.0873   38.6779 C   0  0  0  0  0  0  0  0  0  0  0  0
   33.4415   23.9113   38.0617 C   0  0  0  0  0  0  0  0  0  0  0  0
   32.2761   24.3127   38.7126 C   0  0  0  0  0  0  0  0  0  0  0  0
   32.3459   24.8861   39.9827 C   0  0  0  0  0  0  0  0  0  0  0  0
   35.7824   28.6807   41.5571 C   0  0  0  0  0  0  0  0  0  0  0  0
   38.5181   31.5153   41.7995 S   0  0  0  0  0  0  0  0  0  0  0  0
   38.2252   32.8033   40.6432 C   0  0  0  0  0  0  0  0  0  0  0  0
   38.9731   34.0656   40.8448 C   0  0  0  0  0  0  0  0  0  0  0  0
   38.7860   35.0071   40.0439 O   0  0  0  0  0  0  0  0  0  0  0  0
   39.7688   34.1600   41.8063 O   0  5  0  0  0  0  0  0  0  0  0  0
   35.5759   34.3609   39.8509 H   0  0  0  0  0  0  0  0  0  0  0  0
   34.8157   32.9731   39.0792 H   0  0  0  0  0  0  0  0  0  0  0  0
   39.1570   28.5794   41.8819 H   0  0  0  0  0  0  0  0  0  0  0  0
   38.6176   26.3269   42.7077 H   0  0  0  0  0  0  0  0  0  0  0  0
   36.3007   25.5492   42.7762 H   0  0  0  0  0  0  0  0  0  0  0  0
   34.3252   25.0263   42.6006 H   0  0  0  0  0  0  0  0  0  0  0  0
   32.6558   25.5863   42.4622 H   0  0  0  0  0  0  0  0  0  0  0  0
   35.7132   24.7667   40.4282 H   0  0  0  0  0  0  0  0  0  0  0  0
   35.5821   23.7877   38.1684 H   0  0  0  0  0  0  0  0  0  0  0  0
   33.3853   23.4614   37.0814 H   0  0  0  0  0  0  0  0  0  0  0  0
   31.3172   24.1784   38.2340 H   0  0  0  0  0  0  0  0  0  0  0  0
   31.4378   25.1999   40.4763 H   0  0  0  0  0  0  0  0  0  0  0  0
   34.9839   29.3461   41.2627 H   0  0  0  0  0  0  0  0  0  0  0  0
  1  2  2  0  0  0  0
  2  3  1  0  0  0  0
  2  4  1  0  0  0  0
  4  5  1  0  0  0  0
  4 29  1  0  0  0  0
  4 30  1  0  0  0  0
  5  6  1  0  0  0  0
  6 25  2  0  0  0  0
  6  7  1  0  0  0  0
  7  8  1  0  0  0  0
  7  9  2  0  0  0  0
  9 10  1  0  0  0  0
  9 24  1  0  0  0  0
 10 23  1  0  0  0  0
 10 11  2  0  0  0  0
 11 12  1  0  0  0  0
 11 31  1  0  0  0  0
 12 13  2  0  0  0  0
 12 32  1  0  0  0  0
 13 14  1  0  0  0  0
 13 33  1  0  0  0  0
 14 15  1  0  0  0  0
 14 23  2  0  0  0  0
 15 16  1  0  0  0  0
 16 17  1  0  0  0  0
 16 34  1  0  0  0  0
 16 35  1  0  0  0  0
 17 22  1  0  0  0  0
 17 18  2  0  0  0  0
 18 19  1  0  0  0  0
 18 36  1  0  0  0  0
 19 20  2  0  0  0  0
 19 37  1  0  0  0  0
 20 21  1  0  0  0  0
 20 38  1  0  0  0  0
 21 22  2  0  0  0  0
 21 39  1  0  0  0  0
 22 40  1  0  0  0  0
 23 41  1  0  0  0  0
 24 25  1  0  0  0  0
 25 26  1  0  0  0  0
 26 27  2  0  0  0  0
 26 28  1  0  0  0  0
M  END
>  <i_m_stars>
2

>  <r_user_dG.exp>
-8.389131

$$$$
20670(2qbs)
  PyMOL2.3          3D                             0

 45 47  0  0  0  0  0  0  0  0999 V2000
   35.8956   35.2373   37.1488 O   0  0  0  0  0  0  0  0  0  0  0  0
   35.1614   35.1512   38.1577 C   0  0  0  0  0  0  0  0  0  0  0  0
   34.1540   35.8568   38.3864 O   0  5  0  0  0  0  0  0  0  0  0  0
   35.5316   34.0987   39.2057 C   0  0  0  0  0  0  0  0  0  0  0  0
   36.6761   33.3482   38.8057 O   0  0  0  0  0  0  0  0  0  0  0  0
   37.1086   32.4331   39.7045 C   0  0  0  0  0  0  0  0  0  0  0  0
   36.6139   31.1344   39.7869 C   0  0  0  0  0  0  0  0  0  0  0  0
   35.2958   30.4789   38.5745 Br  0  0  0  0  0  0  0  0  0  0  0  0
   37.1185   30.3463   40.8217 C   0  0  0  0  0  0  0  0  0  0  0  0
   36.7975   28.9755   41.1991 C   0  0  0  0  0  0  0  0  0  0  0  0
   37.7784   28.0920   41.6661 C   0  0  0  0  0  0  0  0  0  0  0  0
   37.4541   26.7715   41.9826 C   0  0  0  0  0  0  0  0  0  0  0  0
   36.1520   26.3074   41.8032 C   0  0  0  0  0  0  0  0  0  0  0  0
   35.1557   27.1743   41.3358 C   0  0  0  0  0  0  0  0  0  0  0  0
   33.8235   26.7887   41.1118 N   0  0  0  0  0  0  0  0  0  0  0  0
   33.4734   25.4166   40.7431 C   0  0  0  0  0  0  0  0  0  0  0  0
   34.0723   25.0218   39.3689 C   0  0  0  0  0  0  0  0  0  0  0  0
   33.6168   23.6284   38.8947 C   0  0  0  0  0  0  0  0  0  0  0  0
   32.0826   23.5033   38.8915 C   0  0  0  0  0  0  0  0  0  0  0  0
   31.4827   23.8602   40.2653 C   0  0  0  0  0  0  0  0  0  0  0  0
   31.9346   25.2534   40.7481 C   0  0  0  0  0  0  0  0  0  0  0  0
   35.4866   28.5040   41.0799 C   0  0  0  0  0  0  0  0  0  0  0  0
   38.3027   31.2780   41.7029 S   0  0  0  0  0  0  0  0  0  0  0  0
   38.0655   32.6839   40.6828 C   0  0  0  0  0  0  0  0  0  0  0  0
   38.8737   33.8852   41.0008 C   0  0  0  0  0  0  0  0  0  0  0  0
   39.6815   33.8302   41.9536 O   0  0  0  0  0  0  0  0  0  0  0  0
   38.7350   34.9189   40.3089 O   0  5  0  0  0  0  0  0  0  0  0  0
   34.6955   33.4093   39.3263 H   0  0  0  0  0  0  0  0  0  0  0  0
   35.6776   34.5778   40.1755 H   0  0  0  0  0  0  0  0  0  0  0  0
   38.7977   28.4278   41.7904 H   0  0  0  0  0  0  0  0  0  0  0  0
   38.2132   26.1077   42.3695 H   0  0  0  0  0  0  0  0  0  0  0  0
   35.9217   25.2763   42.0284 H   0  0  0  0  0  0  0  0  0  0  0  0
   33.0898   27.4765   41.2017 H   0  0  0  0  0  0  0  0  0  0  0  0
   33.9181   24.7729   41.5019 H   0  0  0  0  0  0  0  0  0  0  0  0
   33.7975   25.7616   38.6170 H   0  0  0  0  0  0  0  0  0  0  0  0
   35.1607   25.0342   39.4267 H   0  0  0  0  0  0  0  0  0  0  0  0
   33.9981   23.4405   37.8910 H   0  0  0  0  0  0  0  0  0  0  0  0
   34.0478   22.8585   39.5347 H   0  0  0  0  0  0  0  0  0  0  0  0
   31.6632   24.1608   38.1300 H   0  0  0  0  0  0  0  0  0  0  0  0
   31.7927   22.4898   38.6140 H   0  0  0  0  0  0  0  0  0  0  0  0
   30.3945   23.8354   40.2072 H   0  0  0  0  0  0  0  0  0  0  0  0
   31.7670   23.1086   41.0018 H   0  0  0  0  0  0  0  0  0  0  0  0
   31.5453   25.4288   41.7510 H   0  0  0  0  0  0  0  0  0  0  0  0
   31.4838   26.0119   40.1080 H   0  0  0  0  0  0  0  0  0  0  0  0
   34.7217   29.1997   40.7718 H   0  0  0  0  0  0  0  0  0  0  0  0
  1  2  2  0  0  0  0
  2  3  1  0  0  0  0
  2  4  1  0  0  0  0
  4  5  1  0  0  0  0
  4 28  1  0  0  0  0
  4 29  1  0  0  0  0
  5  6  1  0  0  0  0
  6 24  2  0  0  0  0
  6  7  1  0  0  0  0
  7  8  1  0  0  0  0
  7  9  2  0  0  0  0
  9 10  1  0  0  0  0
  9 23  1  0  0  0  0
 10 22  1  0  0  0  0
 10 11  2  0  0  0  0
 11 12  1  0  0  0  0
 11 30  1  0  0  0  0
 12 13  2  0  0  0  0
 12 31  1  0  0  0  0
 13 14  1  0  0  0  0
 13 32  1  0  0  0  0
 14 15  1  0  0  0  0
 14 22  2  0  0  0  0
 15 16  1  0  0  0  0
 15 33  1  0  0  0  0
 16 21  1  0  0  0  0
 16 17  1  0  0  0  0
 16 34  1  0  0  0  0
 17 18  1  0  0  0  0
 17 35  1  0  0  0  0
 17 36  1  0  0  0  0
 18 19  1  0  0  0  0
 18 37  1  0  0  0  0
 18 38  1  0  0  0  0
 19 20  1  0  0  0  0
 19 39  1  0  0  0  0
 19 40  1  0  0  0  0
 20 21  1  0  0  0  0
 20 41  1  0  0  0  0
 20 42  1  0  0  0  0
 21 43  1  0  0  0  0
 21 44  1  0  0  0  0
 22 45  1  0  0  0  0
 23 24  1  0  0  0  0
 24 25  1  0  0  0  0
 25 26  2  0  0  0  0
 25 27  1  0  0  0  0
M  END
>  <i_m_stars>
3

>  <r_user_dG.exp>
-9.083236

$$$$
23468
  PyMOL2.3          3D                             0

 37 38  0  0  0  0  0  0  0  0999 V2000
   31.7626   23.7281   40.2304 C   0  0  0  0  0  0  0  0  0  0  0  0
   32.0962   25.0947   40.8487 C   0  0  0  0  0  0  0  0  0  0  0  0
   33.5916   25.2807   41.1267 C   0  0  0  0  0  0  0  0  0  0  0  0
   34.3160   24.2966   41.2743 O   0  0  0  0  0  0  0  0  0  0  0  0
   34.0192   26.5564   41.1608 N   0  0  0  0  0  0  0  0  0  0  0  0
   35.3397   27.0493   41.3462 C   0  0  0  0  0  0  0  0  0  0  0  0
   36.3744   26.2729   41.9028 C   0  0  0  0  0  0  0  0  0  0  0  0
   37.6477   26.8392   42.0980 C   0  0  0  0  0  0  0  0  0  0  0  0
   37.8860   28.1795   41.7381 C   0  0  0  0  0  0  0  0  0  0  0  0
   36.8570   28.9701   41.1803 C   0  0  0  0  0  0  0  0  0  0  0  0
   37.1031   30.3603   40.8086 C   0  0  0  0  0  0  0  0  0  0  0  0
   38.0642   31.3649   41.8622 S   0  0  0  0  0  0  0  0  0  0  0  0
   37.8842   32.7528   40.8038 C   0  0  0  0  0  0  0  0  0  0  0  0
   38.5488   34.0067   41.2277 C   0  0  0  0  0  0  0  0  0  0  0  0
   38.4417   35.0172   40.4994 O   0  0  0  0  0  0  0  0  0  0  0  0
   39.1969   34.0254   42.2983 O   0  5  0  0  0  0  0  0  0  0  0  0
   37.1176   32.4437   39.7022 C   0  0  0  0  0  0  0  0  0  0  0  0
   36.8197   33.3173   38.7167 O   0  0  0  0  0  0  0  0  0  0  0  0
   35.7081   34.1570   39.0003 C   0  0  0  0  0  0  0  0  0  0  0  0
   35.1704   34.8076   37.7239 C   0  0  0  0  0  0  0  0  0  0  0  0
   35.9879   35.1135   36.8272 O   0  0  0  0  0  0  0  0  0  0  0  0
   33.9321   34.9710   37.6572 O   0  5  0  0  0  0  0  0  0  0  0  0
   36.6920   31.0824   39.7178 C   0  0  0  0  0  0  0  0  0  0  0  0
   35.6063   30.3560   38.3293 Br  0  0  0  0  0  0  0  0  0  0  0  0
   35.5828   28.3905   40.9875 C   0  0  0  0  0  0  0  0  0  0  0  0
   30.6865   23.6188   40.0958 H   0  0  0  0  0  0  0  0  0  0  0  0
   32.2293   23.6071   39.2521 H   0  0  0  0  0  0  0  0  0  0  0  0
   32.1003   22.9106   40.8685 H   0  0  0  0  0  0  0  0  0  0  0  0
   31.7663   25.8920   40.1822 H   0  0  0  0  0  0  0  0  0  0  0  0
   31.5376   25.2122   41.7785 H   0  0  0  0  0  0  0  0  0  0  0  0
   33.3189   27.2592   40.9741 H   0  0  0  0  0  0  0  0  0  0  0  0
   36.2147   25.2480   42.1998 H   0  0  0  0  0  0  0  0  0  0  0  0
   38.4400   26.2464   42.5309 H   0  0  0  0  0  0  0  0  0  0  0  0
   38.8652   28.6046   41.9041 H   0  0  0  0  0  0  0  0  0  0  0  0
   34.8972   33.5912   39.4624 H   0  0  0  0  0  0  0  0  0  0  0  0
   36.0089   34.9342   39.7043 H   0  0  0  0  0  0  0  0  0  0  0  0
   34.7862   28.9746   40.5501 H   0  0  0  0  0  0  0  0  0  0  0  0
  1  2  1  0  0  0  0
  1 26  1  0  0  0  0
  1 27  1  0  0  0  0
  1 28  1  0  0  0  0
  2  3  1  0  0  0  0
  2 29  1  0  0  0  0
  2 30  1  0  0  0  0
  3  4  2  0  0  0  0
  3  5  1  0  0  0  0
  5  6  1  0  0  0  0
  5 31  1  0  0  0  0
  6 25  1  0  0  0  0
  6  7  2  0  0  0  0
  7  8  1  0  0  0  0
  7 32  1  0  0  0  0
  8  9  2  0  0  0  0
  8 33  1  0  0  0  0
  9 10  1  0  0  0  0
  9 34  1  0  0  0  0
 10 11  1  0  0  0  0
 10 25  2  0  0  0  0
 11 23  2  0  0  0  0
 11 12  1  0  0  0  0
 12 13  1  0  0  0  0
 13 14  1  0  0  0  0
 13 17  2  0  0  0  0
 14 15  2  0  0  0  0
 14 16  1  0  0  0  0
 17 18  1  0  0  0  0
 17 23  1  0  0  0  0
 18 19  1  0  0  0  0
 19 20  1  0  0  0  0
 19 35  1  0  0  0  0
 19 36  1  0  0  0  0
 20 21  2  0  0  0  0
 20 22  1  0  0  0  0
 23 24  1  0  0  0  0
 25 37  1  0  0  0  0
M  END
>  <i_m_stars>
2

>  <r_user_dG.exp>
-7.751841

$$$$
23475
  PyMOL2.3          3D                             0

 42 44  0  0  0  0  0  0  0  0999 V2000
   36.1308   35.0821   36.9159 O   0  0  0  0  0  0  0  0  0  0  0  0
   35.3012   35.0269   37.8505 C   0  0  0  0  0  0  0  0  0  0  0  0
   34.2541   35.7057   37.9345 O   0  5  0  0  0  0  0  0  0  0  0  0
   35.5974   34.0521   38.9927 C   0  0  0  0  0  0  0  0  0  0  0  0
   36.8272   33.3630   38.7794 O   0  0  0  0  0  0  0  0  0  0  0  0
   37.1549   32.4598   39.7329 C   0  0  0  0  0  0  0  0  0  0  0  0
   36.6307   31.1342   39.7832 C   0  0  0  0  0  0  0  0  0  0  0  0
   35.3904   30.4890   38.4864 Br  0  0  0  0  0  0  0  0  0  0  0  0
   37.1066   30.3625   40.8119 C   0  0  0  0  0  0  0  0  0  0  0  0
   36.7985   28.9878   41.1951 C   0  0  0  0  0  0  0  0  0  0  0  0
   37.8203   28.1122   41.6236 C   0  0  0  0  0  0  0  0  0  0  0  0
   37.5225   26.7870   41.9948 C   0  0  0  0  0  0  0  0  0  0  0  0
   36.1957   26.3213   41.9403 C   0  0  0  0  0  0  0  0  0  0  0  0
   35.1673   27.1833   41.5133 C   0  0  0  0  0  0  0  0  0  0  0  0
   33.8575   26.6799   41.4783 N   0  0  0  0  0  0  0  0  0  0  0  0
   33.5801   25.2885   41.1837 C   0  0  0  0  0  0  0  0  0  0  0  0
   33.6154   24.9973   39.6824 C   0  0  0  0  0  0  0  0  0  0  0  0
   32.6859   23.7983   39.5131 C   0  0  0  0  0  0  0  0  0  0  0  0
   31.5552   24.0585   40.5099 C   0  0  0  0  0  0  0  0  0  0  0  0
   32.1868   24.8536   41.6626 C   0  0  0  0  0  0  0  0  0  0  0  0
   35.4701   28.5091   41.1431 C   0  0  0  0  0  0  0  0  0  0  0  0
   38.2557   31.2719   41.7584 S   0  0  0  0  0  0  0  0  0  0  0  0
   38.0634   32.6894   40.7420 C   0  0  0  0  0  0  0  0  0  0  0  0
   38.8805   33.8746   41.0958 C   0  0  0  0  0  0  0  0  0  0  0  0
   39.6473   33.8027   42.0810 O   0  0  0  0  0  0  0  0  0  0  0  0
   38.7806   34.9160   40.4089 O   0  5  0  0  0  0  0  0  0  0  0  0
   34.7607   33.3625   39.1182 H   0  0  0  0  0  0  0  0  0  0  0  0
   35.6764   34.6126   39.9245 H   0  0  0  0  0  0  0  0  0  0  0  0
   38.8448   28.4524   41.6659 H   0  0  0  0  0  0  0  0  0  0  0  0
   38.3134   26.1270   42.3192 H   0  0  0  0  0  0  0  0  0  0  0  0
   35.9798   25.3022   42.2266 H   0  0  0  0  0  0  0  0  0  0  0  0
   33.1116   27.2373   41.8686 H   0  0  0  0  0  0  0  0  0  0  0  0
   34.3408   24.6934   41.6888 H   0  0  0  0  0  0  0  0  0  0  0  0
   33.3118   25.8540   39.0808 H   0  0  0  0  0  0  0  0  0  0  0  0
   34.6271   24.7246   39.3820 H   0  0  0  0  0  0  0  0  0  0  0  0
   32.2881   23.7807   38.4984 H   0  0  0  0  0  0  0  0  0  0  0  0
   33.1891   22.8472   39.6873 H   0  0  0  0  0  0  0  0  0  0  0  0
   30.7806   24.6602   40.0342 H   0  0  0  0  0  0  0  0  0  0  0  0
   31.0847   23.1357   40.8492 H   0  0  0  0  0  0  0  0  0  0  0  0
   32.2670   24.2448   42.5632 H   0  0  0  0  0  0  0  0  0  0  0  0
   31.5694   25.7164   41.9128 H   0  0  0  0  0  0  0  0  0  0  0  0
   34.6952   29.1863   40.8187 H   0  0  0  0  0  0  0  0  0  0  0  0
  1  2  2  0  0  0  0
  2  3  1  0  0  0  0
  2  4  1  0  0  0  0
  4  5  1  0  0  0  0
  4 27  1  0  0  0  0
  4 28  1  0  0  0  0
  5  6  1  0  0  0  0
  6 23  2  0  0  0  0
  6  7  1  0  0  0  0
  7  8  1  0  0  0  0
  7  9  2  0  0  0  0
  9 10  1  0  0  0  0
  9 22  1  0  0  0  0
 10 21  1  0  0  0  0
 10 11  2  0  0  0  0
 11 12  1  0  0  0  0
 11 29  1  0  0  0  0
 12 13  2  0  0  0  0
 12 30  1  0  0  0  0
 13 14  1  0  0  0  0
 13 31  1  0  0  0  0
 14 15  1  0  0  0  0
 14 21  2  0  0  0  0
 15 16  1  0  0  0  0
 15 32  1  0  0  0  0
 16 20  1  0  0  0  0
 16 17  1  0  0  0  0
 16 33  1  0  0  0  0
 17 18  1  0  0  0  0
 17 34  1  0  0  0  0
 17 35  1  0  0  0  0
 18 19  1  0  0  0  0
 18 36  1  0  0  0  0
 18 37  1  0  0  0  0
 19 20  1  0  0  0  0
 19 38  1  0  0  0  0
 19 39  1  0  0  0  0
 20 40  1  0  0  0  0
 20 41  1  0  0  0  0
 21 42  1  0  0  0  0
 22 23  1  0  0  0  0
 23 24  1  0  0  0  0
 24 25  2  0  0  0  0
 24 26  1  0  0  0  0
M  END
>  <i_m_stars>
2

>  <r_user_dG.exp>
-8.717548

$$$$
20667(2qbp)
  PyMOL2.3          3D                             0

 60 63  0  0  0  0  0  0  0  0999 V2000
   35.9751   35.1147   36.7063 O   0  0  0  0  0  0  0  0  0  0  0  0
   35.2834   35.1115   37.7494 C   0  0  0  0  0  0  0  0  0  0  0  0
   34.3151   35.8707   37.9743 O   0  5  0  0  0  0  0  0  0  0  0  0
   35.6663   34.1343   38.8626 C   0  0  0  0  0  0  0  0  0  0  0  0
   36.8803   33.4661   38.5503 O   0  0  0  0  0  0  0  0  0  0  0  0
   37.2837   32.5856   39.4911 C   0  0  0  0  0  0  0  0  0  0  0  0
   36.8353   31.2713   39.5934 C   0  0  0  0  0  0  0  0  0  0  0  0
   35.6759   30.4940   38.2948 Br  0  0  0  0  0  0  0  0  0  0  0  0
   37.2466   30.5574   40.7111 C   0  0  0  0  0  0  0  0  0  0  0  0
   36.8809   29.2179   41.1479 C   0  0  0  0  0  0  0  0  0  0  0  0
   37.8439   28.3324   41.6409 C   0  0  0  0  0  0  0  0  0  0  0  0
   37.4909   27.0437   42.0389 C   0  0  0  0  0  0  0  0  0  0  0  0
   36.1675   26.6180   41.9317 C   0  0  0  0  0  0  0  0  0  0  0  0
   35.1857   27.4851   41.4352 C   0  0  0  0  0  0  0  0  0  0  0  0
   33.8369   27.1147   41.2835 N   0  0  0  0  0  0  0  0  0  0  0  0
   33.4701   25.7307   40.9905 C   0  0  0  0  0  0  0  0  0  0  0  0
   31.9290   25.5813   40.9803 C   0  0  0  0  0  0  0  0  0  0  0  0
   31.4694   24.1792   40.5356 C   0  0  0  0  0  0  0  0  0  0  0  0
   32.1130   23.7975   39.2701 N   0  0  0  0  0  0  0  0  0  0  0  0
   31.2665   22.8855   38.0837 S   0  0  0  0  0  0  0  0  0  0  0  0
   32.0543   22.9503   36.8451 O   0  0  0  0  0  0  0  0  0  0  0  0
   29.8590   23.3211   38.0919 O   0  0  0  0  0  0  0  0  0  0  0  0
   31.3673   21.1616   38.7399 C   0  0  0  0  0  0  0  0  0  0  0  0
   30.8716   20.2109   37.6680 C   0  0  0  0  0  0  0  0  0  0  0  0
   29.5079   19.9206   37.5658 C   0  0  0  0  0  0  0  0  0  0  0  0
   29.0464   19.0803   36.5534 C   0  0  0  0  0  0  0  0  0  0  0  0
   29.9468   18.5294   35.6429 C   0  0  0  0  0  0  0  0  0  0  0  0
   31.3099   18.8068   35.7455 C   0  0  0  0  0  0  0  0  0  0  0  0
   31.7728   19.6449   36.7595 C   0  0  0  0  0  0  0  0  0  0  0  0
   33.5826   23.8493   39.2550 C   0  0  0  0  0  0  0  0  0  0  0  0
   34.0778   25.2492   39.6482 C   0  0  0  0  0  0  0  0  0  0  0  0
   35.5509   28.7826   41.0697 C   0  0  0  0  0  0  0  0  0  0  0  0
   38.3692   31.5417   41.6107 S   0  0  0  0  0  0  0  0  0  0  0  0
   38.1767   32.8934   40.5081 C   0  0  0  0  0  0  0  0  0  0  0  0
   38.9547   34.1179   40.8075 C   0  0  0  0  0  0  0  0  0  0  0  0
   39.7046   34.1221   41.8077 O   0  0  0  0  0  0  0  0  0  0  0  0
   38.8444   35.1134   40.0567 O   0  5  0  0  0  0  0  0  0  0  0  0
   34.8607   33.4103   38.9976 H   0  0  0  0  0  0  0  0  0  0  0  0
   35.7717   34.6902   39.7957 H   0  0  0  0  0  0  0  0  0  0  0  0
   38.8754   28.6431   41.7235 H   0  0  0  0  0  0  0  0  0  0  0  0
   38.2424   26.3749   42.4315 H   0  0  0  0  0  0  0  0  0  0  0  0
   35.9125   25.6127   42.2342 H   0  0  0  0  0  0  0  0  0  0  0  0
   33.1426   27.8357   41.4178 H   0  0  0  0  0  0  0  0  0  0  0  0
   33.8768   25.1297   41.8037 H   0  0  0  0  0  0  0  0  0  0  0  0
   31.5248   25.8012   41.9685 H   0  0  0  0  0  0  0  0  0  0  0  0
   31.5001   26.3244   40.3080 H   0  0  0  0  0  0  0  0  0  0  0  0
   31.7170   23.4286   41.2862 H   0  0  0  0  0  0  0  0  0  0  0  0
   30.3846   24.1506   40.4335 H   0  0  0  0  0  0  0  0  0  0  0  0
   32.4029   20.9627   39.0156 H   0  0  0  0  0  0  0  0  0  0  0  0
   30.7763   21.0790   39.6501 H   0  0  0  0  0  0  0  0  0  0  0  0
   28.8039   20.3539   38.2600 H   0  0  0  0  0  0  0  0  0  0  0  0
   27.9920   18.8617   36.4714 H   0  0  0  0  0  0  0  0  0  0  0  0
   29.5911   17.8929   34.8459 H   0  0  0  0  0  0  0  0  0  0  0  0
   32.0001   18.3856   35.0292 H   0  0  0  0  0  0  0  0  0  0  0  0
   32.8294   19.8561   36.8344 H   0  0  0  0  0  0  0  0  0  0  0  0
   33.9464   23.0828   39.9391 H   0  0  0  0  0  0  0  0  0  0  0  0
   33.9489   23.5652   38.2685 H   0  0  0  0  0  0  0  0  0  0  0  0
   33.8168   25.9564   38.8610 H   0  0  0  0  0  0  0  0  0  0  0  0
   35.1662   25.2531   39.7070 H   0  0  0  0  0  0  0  0  0  0  0  0
   34.8195   29.4849   40.7093 H   0  0  0  0  0  0  0  0  0  0  0  0
  1  2  2  0  0  0  0
  2  3  1  0  0  0  0
  2  4  1  0  0  0  0
  4  5  1  0  0  0  0
  4 38  1  0  0  0  0
  4 39  1  0  0  0  0
  5  6  1  0  0  0  0
  6 34  2  0  0  0  0
  6  7  1  0  0  0  0
  7  8  1  0  0  0  0
  7  9  2  0  0  0  0
  9 10  1  0  0  0  0
  9 33  1  0  0  0  0
 10 32  1  0  0  0  0
 10 11  2  0  0  0  0
 11 12  1  0  0  0  0
 11 40  1  0  0  0  0
 12 13  2  0  0  0  0
 12 41  1  0  0  0  0
 13 14  1  0  0  0  0
 13 42  1  0  0  0  0
 14 15  1  0  0  0  0
 14 32  2  0  0  0  0
 15 16  1  0  0  0  0
 15 43  1  0  0  0  0
 16 31  1  0  0  0  0
 16 17  1  0  0  0  0
 16 44  1  0  0  0  0
 17 18  1  0  0  0  0
 17 45  1  0  0  0  0
 17 46  1  0  0  0  0
 18 19  1  0  0  0  0
 18 47  1  0  0  0  0
 18 48  1  0  0  0  0
 19 20  1  0  0  0  0
 19 30  1  0  0  0  0
 20 21  2  0  0  0  0
 20 22  2  0  0  0  0
 20 23  1  0  0  0  0
 23 24  1  0  0  0  0
 23 49  1  0  0  0  0
 23 50  1  0  0  0  0
 24 29  1  0  0  0  0
 24 25  2  0  0  0  0
 25 26  1  0  0  0  0
 25 51  1  0  0  0  0
 26 27  2  0  0  0  0
 26 52  1  0  0  0  0
 27 28  1  0  0  0  0
 27 53  1  0  0  0  0
 28 29  2  0  0  0  0
 28 54  1  0  0  0  0
 29 55  1  0  0  0  0
 30 31  1  0  0  0  0
 30 56  1  0  0  0  0
 30 57  1  0  0  0  0
 31 58  1  0  0  0  0
 31 59  1  0  0  0  0
 32 60  1  0  0  0  0
 33 34  1  0  0  0  0
 34 35  1  0  0  0  0
 35 36  2  0  0  0  0
 35 37  1  0  0  0  0
M  END
>  <i_m_stars>
3

>  <r_user_dG.exp>
-11.423028

$$$$
23477
  PyMOL2.3          3D                             0

 43 45  0  0  0  0  0  0  0  0999 V2000
   35.9385   35.0257   36.9159 O   0  0  0  0  0  0  0  0  0  0  0  0
   35.1505   34.9691   37.8858 C   0  0  0  0  0  0  0  0  0  0  0  0
   34.1012   35.6383   38.0103 O   0  5  0  0  0  0  0  0  0  0  0  0
   35.5057   34.0058   39.0212 C   0  0  0  0  0  0  0  0  0  0  0  0
   36.7306   33.3246   38.7587 O   0  0  0  0  0  0  0  0  0  0  0  0
   37.1086   32.4331   39.7045 C   0  0  0  0  0  0  0  0  0  0  0  0
   36.6139   31.1344   39.7869 C   0  0  0  0  0  0  0  0  0  0  0  0
   35.3432   30.4571   38.5361 Br  0  0  0  0  0  0  0  0  0  0  0  0
   37.1185   30.3463   40.8217 C   0  0  0  0  0  0  0  0  0  0  0  0
   36.7975   28.9755   41.1991 C   0  0  0  0  0  0  0  0  0  0  0  0
   37.7784   28.0920   41.6661 C   0  0  0  0  0  0  0  0  0  0  0  0
   37.4541   26.7715   41.9826 C   0  0  0  0  0  0  0  0  0  0  0  0
   36.1520   26.3074   41.8032 C   0  0  0  0  0  0  0  0  0  0  0  0
   35.1557   27.1743   41.3358 C   0  0  0  0  0  0  0  0  0  0  0  0
   33.8235   26.7887   41.1118 N   0  0  0  0  0  0  0  0  0  0  0  0
   33.4734   25.4166   40.7431 C   0  0  0  0  0  0  0  0  0  0  0  0
   31.9346   25.2534   40.7481 C   0  0  0  0  0  0  0  0  0  0  0  0
   31.4827   23.8602   40.2653 C   0  0  0  0  0  0  0  0  0  0  0  0
   32.0826   23.5033   38.8915 O   0  0  0  0  0  0  0  0  0  0  0  0
   33.6168   23.6284   38.8947 C   0  0  0  0  0  0  0  0  0  0  0  0
   34.0723   25.0218   39.3689 C   0  0  0  0  0  0  0  0  0  0  0  0
   35.4866   28.5040   41.0799 C   0  0  0  0  0  0  0  0  0  0  0  0
   38.3027   31.2780   41.7029 S   0  0  0  0  0  0  0  0  0  0  0  0
   38.0655   32.6839   40.6828 C   0  0  0  0  0  0  0  0  0  0  0  0
   38.8878   33.8788   40.9881 C   0  0  0  0  0  0  0  0  0  0  0  0
   39.6952   33.8243   41.9415 O   0  0  0  0  0  0  0  0  0  0  0  0
   38.7519   34.9111   40.2934 O   0  5  0  0  0  0  0  0  0  0  0  0
   34.6813   33.3105   39.1887 H   0  0  0  0  0  0  0  0  0  0  0  0
   35.6213   34.5738   39.9445 H   0  0  0  0  0  0  0  0  0  0  0  0
   38.7999   28.4250   41.7800 H   0  0  0  0  0  0  0  0  0  0  0  0
   38.2146   26.1062   42.3641 H   0  0  0  0  0  0  0  0  0  0  0  0
   35.9221   25.2755   42.0256 H   0  0  0  0  0  0  0  0  0  0  0  0
   33.0835   27.4104   41.4046 H   0  0  0  0  0  0  0  0  0  0  0  0
   32.3858   25.3763   40.6832 H   0  0  0  0  0  0  0  0  0  0  0  0
   31.5496   25.4103   41.7557 H   0  0  0  0  0  0  0  0  0  0  0  0
   31.4726   26.0141   40.1188 H   0  0  0  0  0  0  0  0  0  0  0  0
   31.7985   23.0973   40.9769 H   0  0  0  0  0  0  0  0  0  0  0  0
   30.3960   23.8038   40.2033 H   0  0  0  0  0  0  0  0  0  0  0  0
   34.0334   22.8713   39.5591 H   0  0  0  0  0  0  0  0  0  0  0  0
   34.0126   23.4275   37.8992 H   0  0  0  0  0  0  0  0  0  0  0  0
   33.7996   25.7583   38.6130 H   0  0  0  0  0  0  0  0  0  0  0  0
   35.1608   25.0254   39.4255 H   0  0  0  0  0  0  0  0  0  0  0  0
   34.7200   29.2020   40.7812 H   0  0  0  0  0  0  0  0  0  0  0  0
  1  2  2  0  0  0  0
  2  3  1  0  0  0  0
  2  4  1  0  0  0  0
  4  5  1  0  0  0  0
  4 28  1  0  0  0  0
  4 29  1  0  0  0  0
  5  6  1  0  0  0  0
  6 24  2  0  0  0  0
  6  7  1  0  0  0  0
  7  8  1  0  0  0  0
  7  9  2  0  0  0  0
  9 10  1  0  0  0  0
  9 23  1  0  0  0  0
 10 22  1  0  0  0  0
 10 11  2  0  0  0  0
 11 12  1  0  0  0  0
 11 30  1  0  0  0  0
 12 13  2  0  0  0  0
 12 31  1  0  0  0  0
 13 14  1  0  0  0  0
 13 32  1  0  0  0  0
 14 15  1  0  0  0  0
 14 22  2  0  0  0  0
 15 16  1  0  0  0  0
 15 33  1  0  0  0  0
 16 21  1  0  0  0  0
 16 17  1  0  0  0  0
 16 34  1  0  0  0  0
 17 18  1  0  0  0  0
 17 35  1  0  0  0  0
 17 36  1  0  0  0  0
 18 19  1  0  0  0  0
 18 37  1  0  0  0  0
 18 38  1  0  0  0  0
 19 20  1  0  0  0  0
 20 21  1  0  0  0  0
 20 39  1  0  0  0  0
 20 40  1  0  0  0  0
 21 41  1  0  0  0  0
 21 42  1  0  0  0  0
 22 43  1  0  0  0  0
 23 24  1  0  0  0  0
 24 25  1  0  0  0  0
 25 26  2  0  0  0  0
 25 27  1  0  0  0  0
M  END
>  <i_m_stars>
2

>  <r_user_dG.exp>
-8.853166

$$$$
23471
  PyMOL2.3          3D                             0

 35 36  0  0  0  0  0  0  0  0999 V2000
   31.6871   26.8042   41.2314 C   0  0  0  0  0  0  0  0  0  0  0  0
   32.1824   25.9586   42.2558 O   0  0  0  0  0  0  0  0  0  0  0  0
   33.5052   25.8623   42.4567 C   0  0  0  0  0  0  0  0  0  0  0  0
   34.0590   24.9034   42.9961 O   0  0  0  0  0  0  0  0  0  0  0  0
   34.0944   27.0198   41.9654 N   0  0  0  0  0  0  0  0  0  0  0  0
   35.4638   27.3956   41.9991 C   0  0  0  0  0  0  0  0  0  0  0  0
   36.4984   26.5476   42.4175 C   0  0  0  0  0  0  0  0  0  0  0  0
   37.8235   26.9816   42.3799 C   0  0  0  0  0  0  0  0  0  0  0  0
   38.1252   28.2611   41.9171 C   0  0  0  0  0  0  0  0  0  0  0  0
   37.1092   29.1227   41.4957 C   0  0  0  0  0  0  0  0  0  0  0  0
   37.4108   30.4480   40.9872 C   0  0  0  0  0  0  0  0  0  0  0  0
   38.5181   31.5153   41.7995 S   0  0  0  0  0  0  0  0  0  0  0  0
   38.2252   32.8033   40.6432 C   0  0  0  0  0  0  0  0  0  0  0  0
   38.9715   34.0663   40.8570 C   0  0  0  0  0  0  0  0  0  0  0  0
   39.7643   34.1393   41.8212 O   0  0  0  0  0  0  0  0  0  0  0  0
   38.7973   35.0229   40.0689 O   0  5  0  0  0  0  0  0  0  0  0  0
   37.2965   32.4140   39.6799 C   0  0  0  0  0  0  0  0  0  0  0  0
   36.7945   33.2348   38.7275 O   0  0  0  0  0  0  0  0  0  0  0  0
   35.5558   33.8599   39.0550 C   0  0  0  0  0  0  0  0  0  0  0  0
   35.0875   34.7858   37.9305 C   0  0  0  0  0  0  0  0  0  0  0  0
   34.0049   35.3889   38.1000 O   0  0  0  0  0  0  0  0  0  0  0  0
   35.8183   34.8741   36.9194 O   0  5  0  0  0  0  0  0  0  0  0  0
   36.9251   31.0840   39.8557 C   0  0  0  0  0  0  0  0  0  0  0  0
   35.8185   30.2140   38.5697 Br  0  0  0  0  0  0  0  0  0  0  0  0
   35.7824   28.6807   41.5571 C   0  0  0  0  0  0  0  0  0  0  0  0
   30.5982   26.7616   41.2101 H   0  0  0  0  0  0  0  0  0  0  0  0
   31.9841   27.8394   41.4039 H   0  0  0  0  0  0  0  0  0  0  0  0
   32.0592   26.4915   40.2549 H   0  0  0  0  0  0  0  0  0  0  0  0
   33.4452   27.6950   41.5891 H   0  0  0  0  0  0  0  0  0  0  0  0
   36.3058   25.5451   42.7650 H   0  0  0  0  0  0  0  0  0  0  0  0
   38.6152   26.3225   42.7044 H   0  0  0  0  0  0  0  0  0  0  0  0
   39.1569   28.5789   41.8768 H   0  0  0  0  0  0  0  0  0  0  0  0
   34.8073   33.0806   39.1985 H   0  0  0  0  0  0  0  0  0  0  0  0
   35.6115   34.4112   39.9955 H   0  0  0  0  0  0  0  0  0  0  0  0
   34.9883   29.3526   41.2654 H   0  0  0  0  0  0  0  0  0  0  0  0
  1  2  1  0  0  0  0
  1 26  1  0  0  0  0
  1 27  1  0  0  0  0
  1 28  1  0  0  0  0
  2  3  1  0  0  0  0
  3  4  2  0  0  0  0
  3  5  1  0  0  0  0
  5  6  1  0  0  0  0
  5 29  1  0  0  0  0
  6 25  1  0  0  0  0
  6  7  2  0  0  0  0
  7  8  1  0  0  0  0
  7 30  1  0  0  0  0
  8  9  2  0  0  0  0
  8 31  1  0  0  0  0
  9 10  1  0  0  0  0
  9 32  1  0  0  0  0
 10 11  1  0  0  0  0
 10 25  2  0  0  0  0
 11 23  2  0  0  0  0
 11 12  1  0  0  0  0
 12 13  1  0  0  0  0
 13 14  1  0  0  0  0
 13 17  2  0  0  0  0
 14 15  2  0  0  0  0
 14 16  1  0  0  0  0
 17 18  1  0  0  0  0
 17 23  1  0  0  0  0
 18 19  1  0  0  0  0
 19 20  1  0  0  0  0
 19 33  1  0  0  0  0
 19 34  1  0  0  0  0
 20 21  2  0  0  0  0
 20 22  1  0  0  0  0
 23 24  1  0  0  0  0
 25 35  1  0  0  0  0
M  END
>  <i_m_stars>
2

>  <r_user_dG.exp>
-7.751841

$$$$
23485
  PyMOL2.3          3D                             0

 63 66  0  0  0  0  0  0  0  0999 V2000
   35.9432   30.7220   38.5175 C   0  0  0  0  0  0  0  0  0  0  0  0
   36.8353   31.2713   39.5934 C   0  0  0  0  0  0  0  0  0  0  0  0
   37.2837   32.5856   39.4911 C   0  0  0  0  0  0  0  0  0  0  0  0
   36.8975   33.4272   38.5074 O   0  0  0  0  0  0  0  0  0  0  0  0
   35.9156   34.3793   38.9002 C   0  0  0  0  0  0  0  0  0  0  0  0
   35.3513   35.1144   37.6824 C   0  0  0  0  0  0  0  0  0  0  0  0
   35.9293   34.9604   36.5831 O   0  0  0  0  0  0  0  0  0  0  0  0
   34.3255   35.8056   37.8674 O   0  5  0  0  0  0  0  0  0  0  0  0
   38.1767   32.8934   40.5081 C   0  0  0  0  0  0  0  0  0  0  0  0
   38.9602   34.1158   40.8065 C   0  0  0  0  0  0  0  0  0  0  0  0
   39.7076   34.1205   41.8088 O   0  0  0  0  0  0  0  0  0  0  0  0
   38.8569   35.1110   40.0549 O   0  5  0  0  0  0  0  0  0  0  0  0
   38.3692   31.5417   41.6107 S   0  0  0  0  0  0  0  0  0  0  0  0
   37.2466   30.5574   40.7111 C   0  0  0  0  0  0  0  0  0  0  0  0
   36.8809   29.2179   41.1479 C   0  0  0  0  0  0  0  0  0  0  0  0
   37.8439   28.3324   41.6409 C   0  0  0  0  0  0  0  0  0  0  0  0
   37.4909   27.0437   42.0389 C   0  0  0  0  0  0  0  0  0  0  0  0
   36.1675   26.6180   41.9317 C   0  0  0  0  0  0  0  0  0  0  0  0
   35.1857   27.4851   41.4352 C   0  0  0  0  0  0  0  0  0  0  0  0
   33.8369   27.1147   41.2835 N   0  0  0  0  0  0  0  0  0  0  0  0
   33.4701   25.7307   40.9905 C   0  0  0  0  0  0  0  0  0  0  0  0
   31.9290   25.5813   40.9803 C   0  0  0  0  0  0  0  0  0  0  0  0
   31.4694   24.1792   40.5356 C   0  0  0  0  0  0  0  0  0  0  0  0
   32.1130   23.7975   39.2701 N   0  0  0  0  0  0  0  0  0  0  0  0
   31.2665   22.8855   38.0837 S   0  0  0  0  0  0  0  0  0  0  0  0
   32.0543   22.9503   36.8451 O   0  0  0  0  0  0  0  0  0  0  0  0
   29.8590   23.3211   38.0919 O   0  0  0  0  0  0  0  0  0  0  0  0
   31.3673   21.1616   38.7399 C   0  0  0  0  0  0  0  0  0  0  0  0
   30.8716   20.2109   37.6680 C   0  0  0  0  0  0  0  0  0  0  0  0
   29.5079   19.9206   37.5658 C   0  0  0  0  0  0  0  0  0  0  0  0
   29.0464   19.0803   36.5534 C   0  0  0  0  0  0  0  0  0  0  0  0
   29.9468   18.5294   35.6429 C   0  0  0  0  0  0  0  0  0  0  0  0
   31.3099   18.8068   35.7455 C   0  0  0  0  0  0  0  0  0  0  0  0
   31.7728   19.6449   36.7595 C   0  0  0  0  0  0  0  0  0  0  0  0
   33.5826   23.8493   39.2550 C   0  0  0  0  0  0  0  0  0  0  0  0
   34.0778   25.2492   39.6482 C   0  0  0  0  0  0  0  0  0  0  0  0
   35.5509   28.7826   41.0697 C   0  0  0  0  0  0  0  0  0  0  0  0
   35.4117   31.5142   37.9904 H   0  0  0  0  0  0  0  0  0  0  0  0
   36.5189   30.1683   37.7761 H   0  0  0  0  0  0  0  0  0  0  0  0
   35.1891   30.0495   38.9265 H   0  0  0  0  0  0  0  0  0  0  0  0
   35.0839   33.9049   39.4248 H   0  0  0  0  0  0  0  0  0  0  0  0
   36.3643   35.0992   39.5855 H   0  0  0  0  0  0  0  0  0  0  0  0
   38.8752   28.6431   41.7224 H   0  0  0  0  0  0  0  0  0  0  0  0
   38.2429   26.3750   42.4310 H   0  0  0  0  0  0  0  0  0  0  0  0
   35.9115   25.6138   42.2371 H   0  0  0  0  0  0  0  0  0  0  0  0
   33.1481   27.8521   41.3265 H   0  0  0  0  0  0  0  0  0  0  0  0
   33.8768   25.1297   41.8037 H   0  0  0  0  0  0  0  0  0  0  0  0
   31.5248   25.8012   41.9685 H   0  0  0  0  0  0  0  0  0  0  0  0
   31.5001   26.3244   40.3080 H   0  0  0  0  0  0  0  0  0  0  0  0
   31.7170   23.4286   41.2862 H   0  0  0  0  0  0  0  0  0  0  0  0
   30.3846   24.1506   40.4335 H   0  0  0  0  0  0  0  0  0  0  0  0
   32.4144   20.9602   38.9658 H   0  0  0  0  0  0  0  0  0  0  0  0
   30.8186   21.1108   39.6800 H   0  0  0  0  0  0  0  0  0  0  0  0
   28.8059   20.3361   38.2747 H   0  0  0  0  0  0  0  0  0  0  0  0
   27.9922   18.8581   36.4768 H   0  0  0  0  0  0  0  0  0  0  0  0
   29.5893   17.8875   34.8513 H   0  0  0  0  0  0  0  0  0  0  0  0
   32.0034   18.3736   35.0401 H   0  0  0  0  0  0  0  0  0  0  0  0
   32.8301   19.8504   36.8414 H   0  0  0  0  0  0  0  0  0  0  0  0
   33.9464   23.0828   39.9391 H   0  0  0  0  0  0  0  0  0  0  0  0
   33.9489   23.5652   38.2685 H   0  0  0  0  0  0  0  0  0  0  0  0
   33.8168   25.9564   38.8610 H   0  0  0  0  0  0  0  0  0  0  0  0
   35.1662   25.2531   39.7070 H   0  0  0  0  0  0  0  0  0  0  0  0
   34.8191   29.4835   40.7096 H   0  0  0  0  0  0  0  0  0  0  0  0
  1  2  1  0  0  0  0
  1 38  1  0  0  0  0
  1 39  1  0  0  0  0
  1 40  1  0  0  0  0
  2 14  2  0  0  0  0
  2  3  1  0  0  0  0
  3  4  1  0  0  0  0
  3  9  2  0  0  0  0
  4  5  1  0  0  0  0
  5  6  1  0  0  0  0
  5 41  1  0  0  0  0
  5 42  1  0  0  0  0
  6  7  2  0  0  0  0
  6  8  1  0  0  0  0
  9 10  1  0  0  0  0
  9 13  1  0  0  0  0
 10 11  2  0  0  0  0
 10 12  1  0  0  0  0
 13 14  1  0  0  0  0
 14 15  1  0  0  0  0
 15 37  1  0  0  0  0
 15 16  2  0  0  0  0
 16 17  1  0  0  0  0
 16 43  1  0  0  0  0
 17 18  2  0  0  0  0
 17 44  1  0  0  0  0
 18 19  1  0  0  0  0
 18 45  1  0  0  0  0
 19 20  1  0  0  0  0
 19 37  2  0  0  0  0
 20 21  1  0  0  0  0
 20 46  1  0  0  0  0
 21 36  1  0  0  0  0
 21 22  1  0  0  0  0
 21 47  1  0  0  0  0
 22 23  1  0  0  0  0
 22 48  1  0  0  0  0
 22 49  1  0  0  0  0
 23 24  1  0  0  0  0
 23 50  1  0  0  0  0
 23 51  1  0  0  0  0
 24 25  1  0  0  0  0
 24 35  1  0  0  0  0
 25 26  2  0  0  0  0
 25 27  2  0  0  0  0
 25 28  1  0  0  0  0
 28 29  1  0  0  0  0
 28 52  1  0  0  0  0
 28 53  1  0  0  0  0
 29 34  1  0  0  0  0
 29 30  2  0  0  0  0
 30 31  1  0  0  0  0
 30 54  1  0  0  0  0
 31 32  2  0  0  0  0
 31 55  1  0  0  0  0
 32 33  1  0  0  0  0
 32 56  1  0  0  0  0
 33 34  2  0  0  0  0
 33 57  1  0  0  0  0
 34 58  1  0  0  0  0
 35 36  1  0  0  0  0
 35 59  1  0  0  0  0
 35 60  1  0  0  0  0
 36 61  1  0  0  0  0
 36 62  1  0  0  0  0
 37 63  1  0  0  0  0
M  END
>  <i_m_stars>
2

>  <r_user_dG.exp>
-11.013561

$$$$
23467
  PyMOL2.3          3D                             0

 31 32  0  0  0  0  0  0  0  0999 V2000
   33.4821   25.4704   41.7992 C   0  0  0  0  0  0  0  0  0  0  0  0
   33.8229   26.7933   41.4111 O   0  0  0  0  0  0  0  0  0  0  0  0
   35.1421   27.1799   41.5128 C   0  0  0  0  0  0  0  0  0  0  0  0
   36.1596   26.3269   41.9820 C   0  0  0  0  0  0  0  0  0  0  0  0
   37.4852   26.7932   42.0577 C   0  0  0  0  0  0  0  0  0  0  0  0
   37.7927   28.1103   41.6656 C   0  0  0  0  0  0  0  0  0  0  0  0
   36.7818   28.9768   41.1946 C   0  0  0  0  0  0  0  0  0  0  0  0
   37.0998   30.3430   40.7896 C   0  0  0  0  0  0  0  0  0  0  0  0
   38.2421   31.2652   41.7322 S   0  0  0  0  0  0  0  0  0  0  0  0
   38.0670   32.6644   40.6877 C   0  0  0  0  0  0  0  0  0  0  0  0
   38.8772   33.8568   41.0274 C   0  0  0  0  0  0  0  0  0  0  0  0
   38.7802   34.8725   40.3050 O   0  0  0  0  0  0  0  0  0  0  0  0
   39.6355   33.8198   42.0225 O   0  5  0  0  0  0  0  0  0  0  0  0
   37.1690   32.4196   39.6727 C   0  0  0  0  0  0  0  0  0  0  0  0
   36.8182   33.3269   38.7360 O   0  0  0  0  0  0  0  0  0  0  0  0
   35.6321   34.0486   39.0415 C   0  0  0  0  0  0  0  0  0  0  0  0
   35.3214   35.0820   37.9565 C   0  0  0  0  0  0  0  0  0  0  0  0
   36.1351   35.2129   37.0147 O   0  0  0  0  0  0  0  0  0  0  0  0
   34.2716   35.7466   38.1001 O   0  5  0  0  0  0  0  0  0  0  0  0
   36.6388   31.0974   39.7416 C   0  0  0  0  0  0  0  0  0  0  0  0
   35.4074   30.4425   38.4417 Br  0  0  0  0  0  0  0  0  0  0  0  0
   35.4547   28.4974   41.1215 C   0  0  0  0  0  0  0  0  0  0  0  0
   32.4114   25.3198   41.6612 H   0  0  0  0  0  0  0  0  0  0  0  0
   34.0002   24.7297   41.1888 H   0  0  0  0  0  0  0  0  0  0  0  0
   33.7066   25.2932   42.8518 H   0  0  0  0  0  0  0  0  0  0  0  0
   35.9523   25.3131   42.2889 H   0  0  0  0  0  0  0  0  0  0  0  0
   38.2668   26.1396   42.4156 H   0  0  0  0  0  0  0  0  0  0  0  0
   38.8153   28.4535   41.7218 H   0  0  0  0  0  0  0  0  0  0  0  0
   34.7953   33.3544   39.1306 H   0  0  0  0  0  0  0  0  0  0  0  0
   35.7275   34.5723   39.9945 H   0  0  0  0  0  0  0  0  0  0  0  0
   34.6600   29.1388   40.7689 H   0  0  0  0  0  0  0  0  0  0  0  0
  1  2  1  0  0  0  0
  1 23  1  0  0  0  0
  1 24  1  0  0  0  0
  1 25  1  0  0  0  0
  2  3  1  0  0  0  0
  3 22  1  0  0  0  0
  3  4  2  0  0  0  0
  4  5  1  0  0  0  0
  4 26  1  0  0  0  0
  5  6  2  0  0  0  0
  5 27  1  0  0  0  0
  6  7  1  0  0  0  0
  6 28  1  0  0  0  0
  7  8  1  0  0  0  0
  7 22  2  0  0  0  0
  8 20  2  0  0  0  0
  8  9  1  0  0  0  0
  9 10  1  0  0  0  0
 10 11  1  0  0  0  0
 10 14  2  0  0  0  0
 11 12  2  0  0  0  0
 11 13  1  0  0  0  0
 14 15  1  0  0  0  0
 14 20  1  0  0  0  0
 15 16  1  0  0  0  0
 16 17  1  0  0  0  0
 16 29  1  0  0  0  0
 16 30  1  0  0  0  0
 17 18  2  0  0  0  0
 17 19  1  0  0  0  0
 20 21  1  0  0  0  0
 22 31  1  0  0  0  0
M  END
>  <i_m_stars>
2

>  <r_user_dG.exp>
-7.342374

$$$$
23466
  PyMOL2.3          3D                             0

 29 30  0  0  0  0  0  0  0  0999 V2000
   33.8522   26.7266   41.1276 N   0  0  0  0  0  0  0  0  0  0  0  0
   35.1557   27.1743   41.3358 C   0  0  0  0  0  0  0  0  0  0  0  0
   36.1520   26.3074   41.8032 C   0  0  0  0  0  0  0  0  0  0  0  0
   37.4541   26.7715   41.9826 C   0  0  0  0  0  0  0  0  0  0  0  0
   37.7784   28.0920   41.6661 C   0  0  0  0  0  0  0  0  0  0  0  0
   36.7975   28.9755   41.1991 C   0  0  0  0  0  0  0  0  0  0  0  0
   37.1185   30.3463   40.8217 C   0  0  0  0  0  0  0  0  0  0  0  0
   38.3027   31.2780   41.7029 S   0  0  0  0  0  0  0  0  0  0  0  0
   38.0655   32.6839   40.6828 C   0  0  0  0  0  0  0  0  0  0  0  0
   38.8804   33.8806   40.9946 C   0  0  0  0  0  0  0  0  0  0  0  0
   38.7345   34.9043   40.2920 O   0  0  0  0  0  0  0  0  0  0  0  0
   39.6898   33.8398   41.9484 O   0  5  0  0  0  0  0  0  0  0  0  0
   37.1086   32.4331   39.7045 C   0  0  0  0  0  0  0  0  0  0  0  0
   36.7252   33.3314   38.7721 O   0  0  0  0  0  0  0  0  0  0  0  0
   35.5820   34.0938   39.1360 C   0  0  0  0  0  0  0  0  0  0  0  0
   35.1934   35.0697   38.0232 C   0  0  0  0  0  0  0  0  0  0  0  0
   34.2445   35.8580   38.2331 O   0  0  0  0  0  0  0  0  0  0  0  0
   35.8744   35.0237   36.9751 O   0  5  0  0  0  0  0  0  0  0  0  0
   36.6139   31.1344   39.7869 C   0  0  0  0  0  0  0  0  0  0  0  0
   35.3402   30.5044   38.5161 Br  0  0  0  0  0  0  0  0  0  0  0  0
   35.4866   28.5040   41.0799 C   0  0  0  0  0  0  0  0  0  0  0  0
   33.5966   25.7602   41.2718 H   0  0  0  0  0  0  0  0  0  0  0  0
   33.1381   27.3370   40.7568 H   0  0  0  0  0  0  0  0  0  0  0  0
   35.9193   25.2763   42.0266 H   0  0  0  0  0  0  0  0  0  0  0  0
   38.2155   26.1086   42.3663 H   0  0  0  0  0  0  0  0  0  0  0  0
   38.7994   28.4259   41.7789 H   0  0  0  0  0  0  0  0  0  0  0  0
   34.7268   33.4456   39.3354 H   0  0  0  0  0  0  0  0  0  0  0  0
   35.7917   34.6516   40.0498 H   0  0  0  0  0  0  0  0  0  0  0  0
   34.7127   29.1980   40.7854 H   0  0  0  0  0  0  0  0  0  0  0  0
  1  2  1  0  0  0  0
  1 22  1  0  0  0  0
  1 23  1  0  0  0  0
  2 21  1  0  0  0  0
  2  3  2  0  0  0  0
  3  4  1  0  0  0  0
  3 24  1  0  0  0  0
  4  5  2  0  0  0  0
  4 25  1  0  0  0  0
  5  6  1  0  0  0  0
  5 26  1  0  0  0  0
  6  7  1  0  0  0  0
  6 21  2  0  0  0  0
  7 19  2  0  0  0  0
  7  8  1  0  0  0  0
  8  9  1  0  0  0  0
  9 10  1  0  0  0  0
  9 13  2  0  0  0  0
 10 11  2  0  0  0  0
 10 12  1  0  0  0  0
 13 14  1  0  0  0  0
 13 19  1  0  0  0  0
 14 15  1  0  0  0  0
 15 16  1  0  0  0  0
 15 27  1  0  0  0  0
 15 28  1  0  0  0  0
 16 17  2  0  0  0  0
 16 18  1  0  0  0  0
 19 20  1  0  0  0  0
 21 29  1  0  0  0  0
M  END
>  <i_m_stars>
2

>  <r_user_dG.exp>
-7.847846

$$$$
23476
  PyMOL2.3          3D                             0

 48 50  0  0  0  0  0  0  0  0999 V2000
   36.2108   35.2292   37.0181 O   0  0  0  0  0  0  0  0  0  0  0  0
   35.3388   35.1089   37.9064 C   0  0  0  0  0  0  0  0  0  0  0  0
   34.2866   35.7806   37.9887 O   0  5  0  0  0  0  0  0  0  0  0  0
   35.5836   34.0563   38.9900 C   0  0  0  0  0  0  0  0  0  0  0  0
   36.7986   33.3476   38.7574 O   0  0  0  0  0  0  0  0  0  0  0  0
   37.1244   32.4356   39.7032 C   0  0  0  0  0  0  0  0  0  0  0  0
   36.6521   31.0897   39.7036 C   0  0  0  0  0  0  0  0  0  0  0  0
   35.5235   30.4162   38.3223 Br  0  0  0  0  0  0  0  0  0  0  0  0
   37.0464   30.3385   40.7808 C   0  0  0  0  0  0  0  0  0  0  0  0
   36.7555   28.9526   41.1355 C   0  0  0  0  0  0  0  0  0  0  0  0
   37.7655   28.1140   41.6562 C   0  0  0  0  0  0  0  0  0  0  0  0
   37.4839   26.7777   41.9998 C   0  0  0  0  0  0  0  0  0  0  0  0
   36.1856   26.2638   41.8248 C   0  0  0  0  0  0  0  0  0  0  0  0
   35.1695   27.0885   41.3050 C   0  0  0  0  0  0  0  0  0  0  0  0
   33.8935   26.5167   41.1524 N   0  0  0  0  0  0  0  0  0  0  0  0
   33.5815   25.1033   41.2214 C   0  0  0  0  0  0  0  0  0  0  0  0
   32.5123   24.8183   42.2906 C   0  0  0  0  0  0  0  0  0  0  0  0
   32.4441   23.3578   42.7624 C   0  0  0  0  0  0  0  0  0  0  0  0
   32.2063   22.3276   41.6443 C   0  0  0  0  0  0  0  0  0  0  0  0
   33.4470   22.1096   40.7625 C   0  0  0  0  0  0  0  0  0  0  0  0
   33.5981   23.0844   39.5805 C   0  0  0  0  0  0  0  0  0  0  0  0
   33.2019   24.5496   39.8381 C   0  0  0  0  0  0  0  0  0  0  0  0
   35.4559   28.4255   40.9627 C   0  0  0  0  0  0  0  0  0  0  0  0
   38.0499   31.2947   41.8403 S   0  0  0  0  0  0  0  0  0  0  0  0
   37.9097   32.7027   40.8025 C   0  0  0  0  0  0  0  0  0  0  0  0
   38.6171   33.9269   41.2479 C   0  0  0  0  0  0  0  0  0  0  0  0
   39.2763   33.8867   42.3096 O   0  0  0  0  0  0  0  0  0  0  0  0
   38.5448   34.9648   40.5522 O   0  5  0  0  0  0  0  0  0  0  0  0
   34.7619   33.3398   38.9776 H   0  0  0  0  0  0  0  0  0  0  0  0
   35.5679   34.5260   39.9751 H   0  0  0  0  0  0  0  0  0  0  0  0
   38.7659   28.4949   41.8017 H   0  0  0  0  0  0  0  0  0  0  0  0
   38.2645   26.1480   42.4005 H   0  0  0  0  0  0  0  0  0  0  0  0
   35.9842   25.2377   42.0964 H   0  0  0  0  0  0  0  0  0  0  0  0
   33.1351   27.1320   40.8958 H   0  0  0  0  0  0  0  0  0  0  0  0
   34.5021   24.6131   41.5380 H   0  0  0  0  0  0  0  0  0  0  0  0
   32.7140   25.4455   43.1590 H   0  0  0  0  0  0  0  0  0  0  0  0
   31.5340   25.1331   41.9270 H   0  0  0  0  0  0  0  0  0  0  0  0
   33.3526   23.1055   43.3092 H   0  0  0  0  0  0  0  0  0  0  0  0
   31.6360   23.2740   43.4890 H   0  0  0  0  0  0  0  0  0  0  0  0
   31.9611   21.3776   42.1193 H   0  0  0  0  0  0  0  0  0  0  0  0
   31.3363   22.5898   41.0425 H   0  0  0  0  0  0  0  0  0  0  0  0
   34.3406   22.1936   41.3811 H   0  0  0  0  0  0  0  0  0  0  0  0
   33.4544   21.0838   40.3941 H   0  0  0  0  0  0  0  0  0  0  0  0
   34.6320   23.0697   39.2357 H   0  0  0  0  0  0  0  0  0  0  0  0
   33.0123   22.6975   38.7467 H   0  0  0  0  0  0  0  0  0  0  0  0
   32.1305   24.6722   39.6798 H   0  0  0  0  0  0  0  0  0  0  0  0
   33.6726   25.1629   39.0697 H   0  0  0  0  0  0  0  0  0  0  0  0
   34.7013   29.0771   40.5572 H   0  0  0  0  0  0  0  0  0  0  0  0
  1  2  2  0  0  0  0
  2  3  1  0  0  0  0
  2  4  1  0  0  0  0
  4  5  1  0  0  0  0
  4 29  1  0  0  0  0
  4 30  1  0  0  0  0
  5  6  1  0  0  0  0
  6 25  2  0  0  0  0
  6  7  1  0  0  0  0
  7  8  1  0  0  0  0
  7  9  2  0  0  0  0
  9 10  1  0  0  0  0
  9 24  1  0  0  0  0
 10 23  1  0  0  0  0
 10 11  2  0  0  0  0
 11 12  1  0  0  0  0
 11 31  1  0  0  0  0
 12 13  2  0  0  0  0
 12 32  1  0  0  0  0
 13 14  1  0  0  0  0
 13 33  1  0  0  0  0
 14 15  1  0  0  0  0
 14 23  2  0  0  0  0
 15 16  1  0  0  0  0
 15 34  1  0  0  0  0
 16 22  1  0  0  0  0
 16 17  1  0  0  0  0
 16 35  1  0  0  0  0
 17 18  1  0  0  0  0
 17 36  1  0  0  0  0
 17 37  1  0  0  0  0
 18 19  1  0  0  0  0
 18 38  1  0  0  0  0
 18 39  1  0  0  0  0
 19 20  1  0  0  0  0
 19 40  1  0  0  0  0
 19 41  1  0  0  0  0
 20 21  1  0  0  0  0
 20 42  1  0  0  0  0
 20 43  1  0  0  0  0
 21 22  1  0  0  0  0
 21 44  1  0  0  0  0
 21 45  1  0  0  0  0
 22 46  1  0  0  0  0
 22 47  1  0  0  0  0
 23 48  1  0  0  0  0
 24 25  1  0  0  0  0
 25 26  1  0  0  0  0
 26 27  2  0  0  0  0
 26 28  1  0  0  0  0
M  END
>  <i_m_stars>
2

>  <r_user_dG.exp>
-9.413821

$$$$
23484
  PyMOL2.3          3D                             0

 60 63  0  0  0  0  0  0  0  0999 V2000
   34.2188   35.7816   37.8594 O   0  0  0  0  0  0  0  0  0  0  0  0
   35.3032   35.1673   37.7464 C   0  0  0  0  0  0  0  0  0  0  0  0
   36.1130   35.3015   36.8028 O   0  5  0  0  0  0  0  0  0  0  0  0
   35.6900   34.1787   38.8533 C   0  0  0  0  0  0  0  0  0  0  0  0
   36.8866   33.4680   38.5463 O   0  0  0  0  0  0  0  0  0  0  0  0
   37.2837   32.5856   39.4911 C   0  0  0  0  0  0  0  0  0  0  0  0
   36.8353   31.2713   39.5934 C   0  0  0  0  0  0  0  0  0  0  0  0
   37.2466   30.5574   40.7111 C   0  0  0  0  0  0  0  0  0  0  0  0
   36.8809   29.2179   41.1479 C   0  0  0  0  0  0  0  0  0  0  0  0
   37.8439   28.3324   41.6409 C   0  0  0  0  0  0  0  0  0  0  0  0
   37.4909   27.0437   42.0389 C   0  0  0  0  0  0  0  0  0  0  0  0
   36.1675   26.6180   41.9317 C   0  0  0  0  0  0  0  0  0  0  0  0
   35.1857   27.4851   41.4352 C   0  0  0  0  0  0  0  0  0  0  0  0
   33.8369   27.1147   41.2835 N   0  0  0  0  0  0  0  0  0  0  0  0
   33.4701   25.7307   40.9905 C   0  0  0  0  0  0  0  0  0  0  0  0
   31.9290   25.5813   40.9803 C   0  0  0  0  0  0  0  0  0  0  0  0
   31.4694   24.1792   40.5356 C   0  0  0  0  0  0  0  0  0  0  0  0
   32.1130   23.7975   39.2701 N   0  0  0  0  0  0  0  0  0  0  0  0
   31.2665   22.8855   38.0837 S   0  0  0  0  0  0  0  0  0  0  0  0
   32.0543   22.9503   36.8451 O   0  0  0  0  0  0  0  0  0  0  0  0
   29.8590   23.3211   38.0919 O   0  0  0  0  0  0  0  0  0  0  0  0
   31.3673   21.1616   38.7399 C   0  0  0  0  0  0  0  0  0  0  0  0
   30.8716   20.2109   37.6680 C   0  0  0  0  0  0  0  0  0  0  0  0
   29.5079   19.9206   37.5658 C   0  0  0  0  0  0  0  0  0  0  0  0
   29.0464   19.0803   36.5534 C   0  0  0  0  0  0  0  0  0  0  0  0
   29.9468   18.5294   35.6429 C   0  0  0  0  0  0  0  0  0  0  0  0
   31.3099   18.8068   35.7455 C   0  0  0  0  0  0  0  0  0  0  0  0
   31.7728   19.6449   36.7595 C   0  0  0  0  0  0  0  0  0  0  0  0
   33.5826   23.8493   39.2550 C   0  0  0  0  0  0  0  0  0  0  0  0
   34.0778   25.2492   39.6482 C   0  0  0  0  0  0  0  0  0  0  0  0
   35.5509   28.7826   41.0697 C   0  0  0  0  0  0  0  0  0  0  0  0
   38.3692   31.5417   41.6107 S   0  0  0  0  0  0  0  0  0  0  0  0
   38.1767   32.8934   40.5081 C   0  0  0  0  0  0  0  0  0  0  0  0
   38.9605   34.1166   40.8013 C   0  0  0  0  0  0  0  0  0  0  0  0
   39.7127   34.1210   41.8004 O   0  0  0  0  0  0  0  0  0  0  0  0
   38.8549   35.1105   40.0484 O   0  5  0  0  0  0  0  0  0  0  0  0
   34.8831   33.4541   38.9622 H   0  0  0  0  0  0  0  0  0  0  0  0
   35.7720   34.7002   39.8092 H   0  0  0  0  0  0  0  0  0  0  0  0
   36.2004   30.8322   38.8381 H   0  0  0  0  0  0  0  0  0  0  0  0
   38.8754   28.6422   41.7266 H   0  0  0  0  0  0  0  0  0  0  0  0
   38.2426   26.3751   42.4318 H   0  0  0  0  0  0  0  0  0  0  0  0
   35.9128   25.6125   42.2337 H   0  0  0  0  0  0  0  0  0  0  0  0
   33.1465   27.8444   41.3871 H   0  0  0  0  0  0  0  0  0  0  0  0
   33.8768   25.1297   41.8037 H   0  0  0  0  0  0  0  0  0  0  0  0
   31.5248   25.8012   41.9685 H   0  0  0  0  0  0  0  0  0  0  0  0
   31.5001   26.3244   40.3080 H   0  0  0  0  0  0  0  0  0  0  0  0
   31.7170   23.4286   41.2862 H   0  0  0  0  0  0  0  0  0  0  0  0
   30.3846   24.1506   40.4335 H   0  0  0  0  0  0  0  0  0  0  0  0
   32.4142   20.9584   38.9652 H   0  0  0  0  0  0  0  0  0  0  0  0
   30.8182   21.1072   39.6796 H   0  0  0  0  0  0  0  0  0  0  0  0
   28.8074   20.3341   38.2772 H   0  0  0  0  0  0  0  0  0  0  0  0
   27.9921   18.8573   36.4785 H   0  0  0  0  0  0  0  0  0  0  0  0
   29.5893   17.8869   34.8518 H   0  0  0  0  0  0  0  0  0  0  0  0
   32.0033   18.3730   35.0403 H   0  0  0  0  0  0  0  0  0  0  0  0
   32.8299   19.8512   36.8396 H   0  0  0  0  0  0  0  0  0  0  0  0
   33.9464   23.0828   39.9391 H   0  0  0  0  0  0  0  0  0  0  0  0
   33.9489   23.5652   38.2685 H   0  0  0  0  0  0  0  0  0  0  0  0
   33.8168   25.9564   38.8610 H   0  0  0  0  0  0  0  0  0  0  0  0
   35.1662   25.2531   39.7070 H   0  0  0  0  0  0  0  0  0  0  0  0
   34.8111   29.4750   40.7093 H   0  0  0  0  0  0  0  0  0  0  0  0
  1  2  2  0  0  0  0
  2  3  1  0  0  0  0
  2  4  1  0  0  0  0
  4  5  1  0  0  0  0
  4 37  1  0  0  0  0
  4 38  1  0  0  0  0
  5  6  1  0  0  0  0
  6 33  2  0  0  0  0
  6  7  1  0  0  0  0
  7  8  2  0  0  0  0
  7 39  1  0  0  0  0
  8  9  1  0  0  0  0
  8 32  1  0  0  0  0
  9 31  1  0  0  0  0
  9 10  2  0  0  0  0
 10 11  1  0  0  0  0
 10 40  1  0  0  0  0
 11 12  2  0  0  0  0
 11 41  1  0  0  0  0
 12 13  1  0  0  0  0
 12 42  1  0  0  0  0
 13 14  1  0  0  0  0
 13 31  2  0  0  0  0
 14 15  1  0  0  0  0
 14 43  1  0  0  0  0
 15 30  1  0  0  0  0
 15 16  1  0  0  0  0
 15 44  1  0  0  0  0
 16 17  1  0  0  0  0
 16 45  1  0  0  0  0
 16 46  1  0  0  0  0
 17 18  1  0  0  0  0
 17 47  1  0  0  0  0
 17 48  1  0  0  0  0
 18 19  1  0  0  0  0
 18 29  1  0  0  0  0
 19 20  2  0  0  0  0
 19 21  2  0  0  0  0
 19 22  1  0  0  0  0
 22 23  1  0  0  0  0
 22 49  1  0  0  0  0
 22 50  1  0  0  0  0
 23 28  1  0  0  0  0
 23 24  2  0  0  0  0
 24 25  1  0  0  0  0
 24 51  1  0  0  0  0
 25 26  2  0  0  0  0
 25 52  1  0  0  0  0
 26 27  1  0  0  0  0
 26 53  1  0  0  0  0
 27 28  2  0  0  0  0
 27 54  1  0  0  0  0
 28 55  1  0  0  0  0
 29 30  1  0  0  0  0
 29 56  1  0  0  0  0
 29 57  1  0  0  0  0
 30 58  1  0  0  0  0
 30 59  1  0  0  0  0
 31 60  1  0  0  0  0
 32 33  1  0  0  0  0
 33 34  1  0  0  0  0
 34 35  2  0  0  0  0
 34 36  1  0  0  0  0
M  END
>  <i_m_stars>
2

>  <r_user_dG.exp>
-7.751841

$$$$
23479
  PyMOL2.3          3D                             0

 49 51  0  0  0  0  0  0  0  0999 V2000
   29.8336   23.0069   37.8895 C   0  0  0  0  0  0  0  0  0  0  0  0
   31.3560   23.1166   37.7838 C   0  0  0  0  0  0  0  0  0  0  0  0
   31.8821   22.8480   36.7037 O   0  0  0  0  0  0  0  0  0  0  0  0
   32.0826   23.5033   38.8915 N   0  0  0  0  0  0  0  0  0  0  0  0
   31.4827   23.8602   40.2653 C   0  0  0  0  0  0  0  0  0  0  0  0
   31.9346   25.2534   40.7481 C   0  0  0  0  0  0  0  0  0  0  0  0
   33.4734   25.4166   40.7431 C   0  0  0  0  0  0  0  0  0  0  0  0
   33.8235   26.7887   41.1118 N   0  0  0  0  0  0  0  0  0  0  0  0
   35.1557   27.1743   41.3358 C   0  0  0  0  0  0  0  0  0  0  0  0
   36.1520   26.3074   41.8032 C   0  0  0  0  0  0  0  0  0  0  0  0
   37.4541   26.7715   41.9826 C   0  0  0  0  0  0  0  0  0  0  0  0
   37.7784   28.0920   41.6661 C   0  0  0  0  0  0  0  0  0  0  0  0
   36.7975   28.9755   41.1991 C   0  0  0  0  0  0  0  0  0  0  0  0
   37.1185   30.3463   40.8217 C   0  0  0  0  0  0  0  0  0  0  0  0
   38.3027   31.2780   41.7029 S   0  0  0  0  0  0  0  0  0  0  0  0
   38.0655   32.6839   40.6828 C   0  0  0  0  0  0  0  0  0  0  0  0
   38.8923   33.8745   40.9934 C   0  0  0  0  0  0  0  0  0  0  0  0
   39.6952   33.8147   41.9502 O   0  0  0  0  0  0  0  0  0  0  0  0
   38.7643   34.9084   40.2998 O   0  5  0  0  0  0  0  0  0  0  0  0
   37.1086   32.4331   39.7045 C   0  0  0  0  0  0  0  0  0  0  0  0
   36.7319   33.3240   38.7576 O   0  0  0  0  0  0  0  0  0  0  0  0
   35.6147   34.1404   39.1014 C   0  0  0  0  0  0  0  0  0  0  0  0
   35.0262   34.8260   37.8661 C   0  0  0  0  0  0  0  0  0  0  0  0
   35.5441   34.5555   36.7602 O   0  0  0  0  0  0  0  0  0  0  0  0
   34.0634   35.6038   38.0478 O   0  5  0  0  0  0  0  0  0  0  0  0
   36.6139   31.1344   39.7869 C   0  0  0  0  0  0  0  0  0  0  0  0
   35.3450   30.4930   38.5163 Br  0  0  0  0  0  0  0  0  0  0  0  0
   35.4866   28.5040   41.0799 C   0  0  0  0  0  0  0  0  0  0  0  0
   34.0723   25.0218   39.3689 C   0  0  0  0  0  0  0  0  0  0  0  0
   33.6168   23.6284   38.8947 C   0  0  0  0  0  0  0  0  0  0  0  0
   29.4088   22.6509   36.9503 H   0  0  0  0  0  0  0  0  0  0  0  0
   29.5493   22.3017   38.6710 H   0  0  0  0  0  0  0  0  0  0  0  0
   29.3907   23.9787   38.1082 H   0  0  0  0  0  0  0  0  0  0  0  0
   30.3932   23.8272   40.2573 H   0  0  0  0  0  0  0  0  0  0  0  0
   31.8009   23.1065   40.9856 H   0  0  0  0  0  0  0  0  0  0  0  0
   31.4967   26.0197   40.1084 H   0  0  0  0  0  0  0  0  0  0  0  0
   31.5553   25.4409   41.7527 H   0  0  0  0  0  0  0  0  0  0  0  0
   33.8546   25.2555   39.7347 H   0  0  0  0  0  0  0  0  0  0  0  0
   33.0578   27.4426   41.1930 H   0  0  0  0  0  0  0  0  0  0  0  0
   35.9474   25.2755   42.0343 H   0  0  0  0  0  0  0  0  0  0  0  0
   38.2142   26.1071   42.3664 H   0  0  0  0  0  0  0  0  0  0  0  0
   38.7988   28.4282   41.7791 H   0  0  0  0  0  0  0  0  0  0  0  0
   34.8378   33.5720   39.6157 H   0  0  0  0  0  0  0  0  0  0  0  0
   35.9521   34.9042   39.8025 H   0  0  0  0  0  0  0  0  0  0  0  0
   34.7098   29.1954   40.7862 H   0  0  0  0  0  0  0  0  0  0  0  0
   33.7815   25.7579   38.6195 H   0  0  0  0  0  0  0  0  0  0  0  0
   35.1610   25.0468   39.4152 H   0  0  0  0  0  0  0  0  0  0  0  0
   34.0914   22.8708   39.5184 H   0  0  0  0  0  0  0  0  0  0  0  0
   33.9775   23.4513   37.8815 H   0  0  0  0  0  0  0  0  0  0  0  0
  1  2  1  0  0  0  0
  1 31  1  0  0  0  0
  1 32  1  0  0  0  0
  1 33  1  0  0  0  0
  2  3  2  0  0  0  0
  2  4  1  0  0  0  0
  4 30  1  0  0  0  0
  4  5  1  0  0  0  0
  5  6  1  0  0  0  0
  5 34  1  0  0  0  0
  5 35  1  0  0  0  0
  6  7  1  0  0  0  0
  6 36  1  0  0  0  0
  6 37  1  0  0  0  0
  7  8  1  0  0  0  0
  7 29  1  0  0  0  0
  7 38  1  0  0  0  0
  8  9  1  0  0  0  0
  8 39  1  0  0  0  0
  9 28  1  0  0  0  0
  9 10  2  0  0  0  0
 10 11  1  0  0  0  0
 10 40  1  0  0  0  0
 11 12  2  0  0  0  0
 11 41  1  0  0  0  0
 12 13  1  0  0  0  0
 12 42  1  0  0  0  0
 13 14  1  0  0  0  0
 13 28  2  0  0  0  0
 14 26  2  0  0  0  0
 14 15  1  0  0  0  0
 15 16  1  0  0  0  0
 16 17  1  0  0  0  0
 16 20  2  0  0  0  0
 17 18  2  0  0  0  0
 17 19  1  0  0  0  0
 20 21  1  0  0  0  0
 20 26  1  0  0  0  0
 21 22  1  0  0  0  0
 22 23  1  0  0  0  0
 22 43  1  0  0  0  0
 22 44  1  0  0  0  0
 23 24  2  0  0  0  0
 23 25  1  0  0  0  0
 26 27  1  0  0  0  0
 28 45  1  0  0  0  0
 29 30  1  0  0  0  0
 29 46  1  0  0  0  0
 29 47  1  0  0  0  0
 30 48  1  0  0  0  0
 30 49  1  0  0  0  0
M  END
>  <i_m_stars>
2

>  <r_user_dG.exp>
-9.142359

$$$$
23330(2qbq)
  PyMOL2.3          3D                             0

 57 59  0  0  0  0  0  0  0  0999 V2000
   38.1977   31.2432   41.8627 S   0  0  0  0  0  0  0  0  0  0  0  0
   38.0716   32.6813   40.8652 C   0  0  0  0  0  0  0  0  0  0  0  0
   37.2357   32.4714   39.7911 C   0  0  0  0  0  0  0  0  0  0  0  0
   36.7135   31.1442   39.7775 C   0  0  0  0  0  0  0  0  0  0  0  0
   37.1195   30.3519   40.8202 C   0  0  0  0  0  0  0  0  0  0  0  0
   38.8517   33.9118   41.2942 C   0  0  0  0  0  0  0  0  0  0  0  0
   39.5328   33.8139   42.3386 O   0  0  0  0  0  0  0  0  0  0  0  0
   38.7136   34.9202   40.5655 O   0  5  0  0  0  0  0  0  0  0  0  0
   36.7901   28.9689   41.1525 C   0  0  0  0  0  0  0  0  0  0  0  0
   35.4776   28.4797   40.9670 C   0  0  0  0  0  0  0  0  0  0  0  0
   35.1540   27.1458   41.2877 C   0  0  0  0  0  0  0  0  0  0  0  0
   36.1456   26.2863   41.7985 C   0  0  0  0  0  0  0  0  0  0  0  0
   37.4564   26.7624   41.9860 C   0  0  0  0  0  0  0  0  0  0  0  0
   37.7751   28.0956   41.6641 C   0  0  0  0  0  0  0  0  0  0  0  0
   35.5717   30.5690   38.3778 Br  0  0  0  0  0  0  0  0  0  0  0  0
   36.9816   33.3677   38.8109 O   0  0  0  0  0  0  0  0  0  0  0  0
   36.0810   34.4163   39.1537 C   0  0  0  0  0  0  0  0  0  0  0  0
   35.7578   35.2772   37.9261 C   0  0  0  0  0  0  0  0  0  0  0  0
   34.7618   34.9894   37.2255 O   0  0  0  0  0  0  0  0  0  0  0  0
   36.5199   36.2421   37.7046 O   0  5  0  0  0  0  0  0  0  0  0  0
   33.8256   26.7260   41.0849 N   0  0  0  0  0  0  0  0  0  0  0  0
   33.4935   25.3293   40.8883 C   0  0  0  0  0  0  0  0  0  0  0  0
   31.9663   25.1500   40.8749 C   0  0  0  0  0  0  0  0  0  0  0  0
   31.5791   23.6868   40.6034 C   0  0  0  0  0  0  0  0  0  0  0  0
   32.2121   23.1755   39.2986 C   0  0  0  0  0  0  0  0  0  0  0  0
   33.7392   23.3548   39.3121 C   0  0  0  0  0  0  0  0  0  0  0  0
   34.1264   24.8179   39.5837 C   0  0  0  0  0  0  0  0  0  0  0  0
   30.0605   23.5546   40.5321 C   0  0  0  0  0  0  0  0  0  0  0  0
   32.0309   22.8122   41.7693 C   0  0  0  0  0  0  0  0  0  0  0  0
   34.3289   22.8987   37.9806 C   0  0  0  0  0  0  0  0  0  0  0  0
   34.3514   22.4556   40.3823 C   0  0  0  0  0  0  0  0  0  0  0  0
   34.7227   29.1348   40.5574 H   0  0  0  0  0  0  0  0  0  0  0  0
   35.9224   25.2606   42.0493 H   0  0  0  0  0  0  0  0  0  0  0  0
   38.2231   26.0999   42.3610 H   0  0  0  0  0  0  0  0  0  0  0  0
   38.7874   28.4431   41.8034 H   0  0  0  0  0  0  0  0  0  0  0  0
   35.1487   34.0127   39.5527 H   0  0  0  0  0  0  0  0  0  0  0  0
   36.5225   35.0501   39.9246 H   0  0  0  0  0  0  0  0  0  0  0  0
   33.2509   27.3641   40.5472 H   0  0  0  0  0  0  0  0  0  0  0  0
   33.9177   24.7917   41.7364 H   0  0  0  0  0  0  0  0  0  0  0  0
   31.5452   25.4758   41.8259 H   0  0  0  0  0  0  0  0  0  0  0  0
   31.5290   25.7923   40.1105 H   0  0  0  0  0  0  0  0  0  0  0  0
   31.9623   22.1249   39.1508 H   0  0  0  0  0  0  0  0  0  0  0  0
   31.7878   23.7130   38.4506 H   0  0  0  0  0  0  0  0  0  0  0  0
   33.8037   25.4427   38.7508 H   0  0  0  0  0  0  0  0  0  0  0  0
   35.2111   24.9124   39.6346 H   0  0  0  0  0  0  0  0  0  0  0  0
   29.7557   22.5297   40.3170 H   0  0  0  0  0  0  0  0  0  0  0  0
   29.5880   23.8429   41.4711 H   0  0  0  0  0  0  0  0  0  0  0  0
   29.6376   24.1872   39.7519 H   0  0  0  0  0  0  0  0  0  0  0  0
   31.9008   21.7517   41.5506 H   0  0  0  0  0  0  0  0  0  0  0  0
   33.0682   22.9667   42.0483 H   0  0  0  0  0  0  0  0  0  0  0  0
   31.4549   23.0275   42.6705 H   0  0  0  0  0  0  0  0  0  0  0  0
   35.4046   23.0738   37.9402 H   0  0  0  0  0  0  0  0  0  0  0  0
   34.1631   21.8338   37.8109 H   0  0  0  0  0  0  0  0  0  0  0  0
   33.8878   23.4284   37.1395 H   0  0  0  0  0  0  0  0  0  0  0  0
   35.4335   22.4385   40.2915 H   0  0  0  0  0  0  0  0  0  0  0  0
   34.1566   22.7873   41.3967 H   0  0  0  0  0  0  0  0  0  0  0  0
   34.0031   21.4256   40.2960 H   0  0  0  0  0  0  0  0  0  0  0  0
  1  2  1  0  0  0  0
  1  5  1  0  0  0  0
  2  3  2  0  0  0  0
  2  6  1  0  0  0  0
  3  4  1  0  0  0  0
  3 16  1  0  0  0  0
  4  5  2  0  0  0  0
  4 15  1  0  0  0  0
  5  9  1  0  0  0  0
  6  7  2  0  0  0  0
  6  8  1  0  0  0  0
  9 10  1  0  0  0  0
  9 14  2  0  0  0  0
 10 11  2  0  0  0  0
 10 32  1  0  0  0  0
 11 12  1  0  0  0  0
 11 21  1  0  0  0  0
 12 13  2  0  0  0  0
 12 33  1  0  0  0  0
 13 14  1  0  0  0  0
 13 34  1  0  0  0  0
 14 35  1  0  0  0  0
 16 17  1  0  0  0  0
 17 18  1  0  0  0  0
 17 36  1  0  0  0  0
 17 37  1  0  0  0  0
 18 19  2  0  0  0  0
 18 20  1  0  0  0  0
 21 22  1  0  0  0  0
 21 38  1  0  0  0  0
 22 23  1  0  0  0  0
 22 27  1  0  0  0  0
 22 39  1  0  0  0  0
 23 24  1  0  0  0  0
 23 40  1  0  0  0  0
 23 41  1  0  0  0  0
 24 25  1  0  0  0  0
 24 28  1  0  0  0  0
 24 29  1  0  0  0  0
 25 26  1  0  0  0  0
 25 42  1  0  0  0  0
 25 43  1  0  0  0  0
 26 27  1  0  0  0  0
 26 30  1  0  0  0  0
 26 31  1  0  0  0  0
 27 44  1  0  0  0  0
 27 45  1  0  0  0  0
 28 46  1  0  0  0  0
 28 47  1  0  0  0  0
 28 48  1  0  0  0  0
 29 49  1  0  0  0  0
 29 50  1  0  0  0  0
 29 51  1  0  0  0  0
 30 52  1  0  0  0  0
 30 53  1  0  0  0  0
 30 54  1  0  0  0  0
 31 55  1  0  0  0  0
 31 56  1  0  0  0  0
 31 57  1  0  0  0  0
M  END
>  <i_m_stars>
3

>  <r_user_dG.exp>
-10.125050

$$$$
