p38a_2n
  PyMOL2.3          3D                             0

 53 56  0  0  0  0  0  0  0  0999 V2000
   45.9822   32.8976   28.0582 C   0  0  0  0  0  0  0  0  0  0  0  0
   42.5879   33.6758   32.7594 C   0  0  0  0  0  0  0  0  0  0  0  0
   45.3477   32.9138   29.3154 C   0  0  0  0  0  0  0  0  0  0  0  0
   44.1386   37.8930   34.3650 C   0  0  0  0  0  0  0  0  0  0  0  0
   43.9947   36.1282   32.3469 C   0  0  0  0  0  0  0  0  0  0  0  0
   43.9375   35.1132   31.3003 C   0  0  0  0  0  0  0  0  0  0  0  0
   45.2179   32.9711   26.8778 C   0  0  0  0  0  0  0  0  0  0  0  0
   43.8157   33.0295   26.9542 C   0  0  0  0  0  0  0  0  0  0  0  0
   43.1811   33.0201   28.2087 C   0  0  0  0  0  0  0  0  0  0  0  0
   43.4063   35.8418   33.5968 C   0  0  0  0  0  0  0  0  0  0  0  0
   44.6266   37.3796   32.1963 C   0  0  0  0  0  0  0  0  0  0  0  0
   43.3024   33.9386   31.5063 C   0  0  0  0  0  0  0  0  0  0  0  0
   43.9395   32.9775   29.3940 C   0  0  0  0  0  0  0  0  0  0  0  0
   46.0798   32.8787   30.4288 F   0  0  0  0  0  0  0  0  0  0  0  0
   43.2835   32.9028   30.5961 O   0  0  0  0  0  0  0  0  0  0  0  0
   44.7061   38.2628   33.2160 N   0  0  0  0  0  0  0  0  0  0  0  0
   41.8876   32.6729   32.8931 O   0  0  0  0  0  0  0  0  0  0  0  0
   42.7267   34.5925   33.7618 N   0  0  0  0  0  0  0  0  0  0  0  0
   43.4927   36.7498   34.5953 N   0  0  0  0  0  0  0  0  0  0  0  0
   44.2255   38.7864   35.4112 N   0  0  0  0  0  0  0  0  0  0  0  0
   47.0577   32.8499   27.9984 H   0  0  0  0  0  0  0  0  0  0  0  0
   44.4659   35.3279   30.3847 H   0  0  0  0  0  0  0  0  0  0  0  0
   43.2252   33.0736   26.0510 H   0  0  0  0  0  0  0  0  0  0  0  0
   42.1024   33.0265   28.2626 H   0  0  0  0  0  0  0  0  0  0  0  0
   45.0929   37.6601   31.2647 H   0  0  0  0  0  0  0  0  0  0  0  0
   44.7410   39.6346   35.2177 H   0  0  0  0  0  0  0  0  0  0  0  0
   45.8174   32.9944   25.6874 F   0  0  0  0  0  0  0  0  0  0  0  0
   43.5405   39.7718   39.0236 C   0  0  0  0  0  0  0  0  0  0  0  0
   44.0438   39.9079   37.5777 C   0  0  0  0  0  0  0  0  0  0  0  0
   43.7020   38.6546   36.7560 C   0  0  0  0  0  0  0  0  0  0  0  0
   44.2708   37.3900   37.4193 C   0  0  0  0  0  0  0  0  0  0  0  0
   43.7674   37.2538   38.8652 C   0  0  0  0  0  0  0  0  0  0  0  0
   44.1093   38.5071   39.6870 O   0  0  0  0  0  0  0  0  0  0  0  0
   42.4250   39.7228   39.0258 H   0  0  0  0  0  0  0  0  0  0  0  0
   43.8283   40.6752   39.6147 H   0  0  0  0  0  0  0  0  0  0  0  0
   45.1503   40.0591   37.5820 H   0  0  0  0  0  0  0  0  0  0  0  0
   43.5933   40.8122   37.1002 H   0  0  0  0  0  0  0  0  0  0  0  0
   42.5930   38.5604   36.6659 H   0  0  0  0  0  0  0  0  0  0  0  0
   43.9832   36.4866   36.8282 H   0  0  0  0  0  0  0  0  0  0  0  0
   45.3865   37.4390   37.4171 H   0  0  0  0  0  0  0  0  0  0  0  0
   42.6612   37.1026   38.8609 H   0  0  0  0  0  0  0  0  0  0  0  0
   44.2180   36.3496   39.3427 H   0  0  0  0  0  0  0  0  0  0  0  0
   42.1086   34.3285   35.0456 C   0  0  0  0  0  0  0  0  0  0  0  0
   42.3214   35.1768   35.7435 H   0  0  0  0  0  0  0  0  0  0  0  0
   41.0026   34.2237   34.9124 H   0  0  0  0  0  0  0  0  0  0  0  0
   42.6757   33.0367   35.6271 C   0  0  0  0  0  0  0  0  0  0  0  0
   42.4628   32.1884   34.9292 H   0  0  0  0  0  0  0  0  0  0  0  0
   43.7817   33.1415   35.7603 H   0  0  0  0  0  0  0  0  0  0  0  0
   42.0246   32.7587   36.9791 C   0  0  0  0  0  0  0  0  0  0  0  0
   42.2376   33.6069   37.6770 H   0  0  0  0  0  0  0  0  0  0  0  0
   40.9187   32.6538   36.8459 H   0  0  0  0  0  0  0  0  0  0  0  0
   42.5487   31.5651   37.5164 O   0  0  0  0  0  0  0  0  0  0  0  0
   42.3412   30.8757   36.8855 H   0  0  0  0  0  0  0  0  0  0  0  0
  1  3  1  0  0  0  0
  1  7  2  0  0  0  0
  1 21  1  0  0  0  0
  2 12  1  0  0  0  0
  2 17  2  0  0  0  0
  2 18  1  0  0  0  0
  3 13  2  0  0  0  0
  3 14  1  0  0  0  0
  4 16  1  0  0  0  0
  4 19  2  0  0  0  0
  4 20  1  0  0  0  0
  5  6  1  0  0  0  0
  5 10  2  0  0  0  0
  5 11  1  0  0  0  0
  6 12  2  0  0  0  0
  6 22  1  0  0  0  0
  7  8  1  0  0  0  0
  7 27  1  0  0  0  0
  8  9  2  0  0  0  0
  8 23  1  0  0  0  0
  9 13  1  0  0  0  0
  9 24  1  0  0  0  0
 10 18  1  0  0  0  0
 10 19  1  0  0  0  0
 11 16  2  0  0  0  0
 11 25  1  0  0  0  0
 12 15  1  0  0  0  0
 13 15  1  0  0  0  0
 18 43  1  0  0  0  0
 20 26  1  0  0  0  0
 20 30  1  0  0  0  0
 28 29  1  0  0  0  0
 28 33  1  0  0  0  0
 28 34  1  0  0  0  0
 28 35  1  0  0  0  0
 29 30  1  0  0  0  0
 29 36  1  0  0  0  0
 29 37  1  0  0  0  0
 30 31  1  0  0  0  0
 30 38  1  0  0  0  0
 31 32  1  0  0  0  0
 31 39  1  0  0  0  0
 31 40  1  0  0  0  0
 32 33  1  0  0  0  0
 32 41  1  0  0  0  0
 32 42  1  0  0  0  0
 43 44  1  0  0  0  0
 43 45  1  0  0  0  0
 43 46  1  0  0  0  0
 46 47  1  0  0  0  0
 46 48  1  0  0  0  0
 46 49  1  0  0  0  0
 49 50  1  0  0  0  0
 49 51  1  0  0  0  0
 49 52  1  0  0  0  0
 52 53  1  0  0  0  0
M  END
>  <r_user_dG.exp>
-11.854000

$$$$
p38a_3flz
  PyMOL2.3          3D                             0

 46 49  0  0  0  0  0  0  0  0999 V2000
   43.1433   32.8647   30.5727 O   0  0  0  0  0  0  0  0  0  0  0  0
   43.8828   35.0329   31.3039 C   0  0  0  0  0  0  0  0  0  0  0  0
   43.1621   35.8805   33.5017 C   0  0  0  0  0  0  0  0  0  0  0  0
   43.9129   36.0718   32.3240 C   0  0  0  0  0  0  0  0  0  0  0  0
   44.6819   37.2506   32.2253 C   0  0  0  0  0  0  0  0  0  0  0  0
   44.0068   37.8707   34.3141 C   0  0  0  0  0  0  0  0  0  0  0  0
   43.1702   33.8969   31.4831 C   0  0  0  0  0  0  0  0  0  0  0  0
   43.9646   32.8548   29.4734 C   0  0  0  0  0  0  0  0  0  0  0  0
   41.5445   34.5559   34.8350 C   0  0  0  0  0  0  0  0  0  0  0  0
   44.4482   39.2693   37.7565 C   0  0  0  0  0  0  0  0  0  0  0  0
   43.4094   32.9907   28.1855 C   0  0  0  0  0  0  0  0  0  0  0  0
   45.6141   32.6853   27.1918 C   0  0  0  0  0  0  0  0  0  0  0  0
   44.2326   32.9080   27.0461 C   0  0  0  0  0  0  0  0  0  0  0  0
   46.1707   32.5348   28.4766 C   0  0  0  0  0  0  0  0  0  0  0  0
   41.7450   32.6437   32.8748 O   0  0  0  0  0  0  0  0  0  0  0  0
   42.3698   33.6901   32.6971 C   0  0  0  0  0  0  0  0  0  0  0  0
   45.3495   32.6288   29.6157 C   0  0  0  0  0  0  0  0  0  0  0  0
   44.7318   38.1525   33.2294 N   0  0  0  0  0  0  0  0  0  0  0  0
   42.3653   34.6958   33.6206 N   0  0  0  0  0  0  0  0  0  0  0  0
   43.2289   36.8030   34.4892 N   0  0  0  0  0  0  0  0  0  0  0  0
   44.0801   38.7690   35.3582 N   0  0  0  0  0  0  0  0  0  0  0  0
   43.5388   38.6220   36.7033 C   0  0  0  0  0  0  0  0  0  0  0  0
   42.1363   39.2340   36.8171 C   0  0  0  0  0  0  0  0  0  0  0  0
   41.6190   39.1004   38.2593 C   0  0  0  0  0  0  0  0  0  0  0  0
   42.5268   39.7226   39.1625 O   0  0  0  0  0  0  0  0  0  0  0  0
   43.8220   39.1312   39.1529 C   0  0  0  0  0  0  0  0  0  0  0  0
   44.4736   35.2027   30.4180 H   0  0  0  0  0  0  0  0  0  0  0  0
   45.2800   37.4550   31.3513 H   0  0  0  0  0  0  0  0  0  0  0  0
   40.7628   33.7979   34.7655 H   0  0  0  0  0  0  0  0  0  0  0  0
   42.1784   34.3019   35.6852 H   0  0  0  0  0  0  0  0  0  0  0  0
   41.0317   35.4908   35.0645 H   0  0  0  0  0  0  0  0  0  0  0  0
   45.4379   38.8114   37.7407 H   0  0  0  0  0  0  0  0  0  0  0  0
   44.5828   40.3284   37.5379 H   0  0  0  0  0  0  0  0  0  0  0  0
   42.3488   33.1497   28.0708 H   0  0  0  0  0  0  0  0  0  0  0  0
   46.2468   32.6355   26.3191 H   0  0  0  0  0  0  0  0  0  0  0  0
   43.8036   33.0172   26.0605 H   0  0  0  0  0  0  0  0  0  0  0  0
   47.2287   32.3547   28.5881 H   0  0  0  0  0  0  0  0  0  0  0  0
   45.7798   32.5252   30.6007 H   0  0  0  0  0  0  0  0  0  0  0  0
   44.7091   39.5486   35.2199 H   0  0  0  0  0  0  0  0  0  0  0  0
   43.4729   37.5577   36.9336 H   0  0  0  0  0  0  0  0  0  0  0  0
   42.1678   40.2852   36.5309 H   0  0  0  0  0  0  0  0  0  0  0  0
   41.4477   38.7416   36.1294 H   0  0  0  0  0  0  0  0  0  0  0  0
   40.6465   39.5794   38.3600 H   0  0  0  0  0  0  0  0  0  0  0  0
   41.4841   38.0520   38.5286 H   0  0  0  0  0  0  0  0  0  0  0  0
   43.7590   38.0832   39.4503 H   0  0  0  0  0  0  0  0  0  0  0  0
   44.4433   39.6361   39.8928 H   0  0  0  0  0  0  0  0  0  0  0  0
  1  7  1  0  0  0  0
  1  8  1  0  0  0  0
  2  4  1  0  0  0  0
  2  7  2  0  0  0  0
  2 27  1  0  0  0  0
  3  4  2  0  0  0  0
  3 19  1  0  0  0  0
  3 20  1  0  0  0  0
  4  5  1  0  0  0  0
  5 18  2  0  0  0  0
  5 28  1  0  0  0  0
  6 18  1  0  0  0  0
  6 20  2  0  0  0  0
  6 21  1  0  0  0  0
  7 16  1  0  0  0  0
  8 11  1  0  0  0  0
  8 17  2  0  0  0  0
  9 19  1  0  0  0  0
  9 29  1  0  0  0  0
  9 30  1  0  0  0  0
  9 31  1  0  0  0  0
 10 22  1  0  0  0  0
 10 26  1  0  0  0  0
 10 32  1  0  0  0  0
 10 33  1  0  0  0  0
 11 13  2  0  0  0  0
 11 34  1  0  0  0  0
 12 13  1  0  0  0  0
 12 14  2  0  0  0  0
 12 35  1  0  0  0  0
 13 36  1  0  0  0  0
 14 17  1  0  0  0  0
 14 37  1  0  0  0  0
 15 16  2  0  0  0  0
 16 19  1  0  0  0  0
 17 38  1  0  0  0  0
 21 22  1  0  0  0  0
 21 39  1  0  0  0  0
 22 23  1  0  0  0  0
 22 40  1  0  0  0  0
 23 24  1  0  0  0  0
 23 41  1  0  0  0  0
 23 42  1  0  0  0  0
 24 25  1  0  0  0  0
 24 43  1  0  0  0  0
 24 44  1  0  0  0  0
 25 26  1  0  0  0  0
 26 45  1  0  0  0  0
 26 46  1  0  0  0  0
M  END
>  <r_user_dG.exp>
-9.487100

$$$$
p38a_2h
  PyMOL2.3          3D                             0

 46 49  0  0  0  0  0  0  0  0999 V2000
   42.3250   39.3307   36.8840 C   0  0  0  0  0  0  0  0  0  0  0  0
   41.8162   39.2582   38.3328 C   0  0  0  0  0  0  0  0  0  0  0  0
   44.0213   39.1916   39.2074 C   0  0  0  0  0  0  0  0  0  0  0  0
   44.6441   39.2671   37.8046 C   0  0  0  0  0  0  0  0  0  0  0  0
   46.1442   32.6604   27.5277 C   0  0  0  0  0  0  0  0  0  0  0  0
   42.7619   39.8553   39.2125 O   0  0  0  0  0  0  0  0  0  0  0  0
   42.5879   33.6758   32.7594 C   0  0  0  0  0  0  0  0  0  0  0  0
   45.5097   32.6766   28.7848 C   0  0  0  0  0  0  0  0  0  0  0  0
   44.1386   37.8930   34.3650 C   0  0  0  0  0  0  0  0  0  0  0  0
   43.6961   38.6555   36.7633 C   0  0  0  0  0  0  0  0  0  0  0  0
   43.9947   36.1282   32.3469 C   0  0  0  0  0  0  0  0  0  0  0  0
   43.9375   35.1132   31.3003 C   0  0  0  0  0  0  0  0  0  0  0  0
   45.3799   32.7339   26.3473 C   0  0  0  0  0  0  0  0  0  0  0  0
   43.9777   32.7924   26.4236 C   0  0  0  0  0  0  0  0  0  0  0  0
   43.3431   32.7830   27.6782 C   0  0  0  0  0  0  0  0  0  0  0  0
   43.4063   35.8418   33.5968 C   0  0  0  0  0  0  0  0  0  0  0  0
   44.6266   37.3796   32.1963 C   0  0  0  0  0  0  0  0  0  0  0  0
   43.3024   33.9386   31.5063 C   0  0  0  0  0  0  0  0  0  0  0  0
   44.1016   32.7403   28.8634 C   0  0  0  0  0  0  0  0  0  0  0  0
   42.0985   34.3242   35.0664 C   0  0  0  0  0  0  0  0  0  0  0  0
   46.2417   32.6416   29.8983 F   0  0  0  0  0  0  0  0  0  0  0  0
   43.2789   32.6468   30.3710 S   0  0  0  0  0  0  0  0  0  0  0  0
   44.7061   38.2628   33.2160 N   0  0  0  0  0  0  0  0  0  0  0  0
   41.8876   32.6729   32.8931 O   0  0  0  0  0  0  0  0  0  0  0  0
   42.7267   34.5925   33.7618 N   0  0  0  0  0  0  0  0  0  0  0  0
   43.4927   36.7498   34.5953 N   0  0  0  0  0  0  0  0  0  0  0  0
   44.2255   38.7864   35.4112 N   0  0  0  0  0  0  0  0  0  0  0  0
   41.6055   38.8596   36.2130 H   0  0  0  0  0  0  0  0  0  0  0  0
   42.4075   40.3723   36.5759 H   0  0  0  0  0  0  0  0  0  0  0  0
   40.8743   39.7956   38.4266 H   0  0  0  0  0  0  0  0  0  0  0  0
   41.6283   38.2258   38.6308 H   0  0  0  0  0  0  0  0  0  0  0  0
   43.9028   38.1548   39.5267 H   0  0  0  0  0  0  0  0  0  0  0  0
   44.6753   39.6762   39.9328 H   0  0  0  0  0  0  0  0  0  0  0  0
   44.8374   40.3136   37.5701 H   0  0  0  0  0  0  0  0  0  0  0  0
   45.6055   38.7526   37.7923 H   0  0  0  0  0  0  0  0  0  0  0  0
   47.2197   32.6128   27.4680 H   0  0  0  0  0  0  0  0  0  0  0  0
   43.5837   37.5964   36.9972 H   0  0  0  0  0  0  0  0  0  0  0  0
   44.4659   35.3279   30.3847 H   0  0  0  0  0  0  0  0  0  0  0  0
   43.3872   32.8365   25.5205 H   0  0  0  0  0  0  0  0  0  0  0  0
   42.2645   32.7894   27.7321 H   0  0  0  0  0  0  0  0  0  0  0  0
   45.0929   37.6601   31.2647 H   0  0  0  0  0  0  0  0  0  0  0  0
   42.7396   34.6470   35.8872 H   0  0  0  0  0  0  0  0  0  0  0  0
   41.1557   34.8670   35.1423 H   0  0  0  0  0  0  0  0  0  0  0  0
   41.8943   33.2689   35.2531 H   0  0  0  0  0  0  0  0  0  0  0  0
   44.7410   39.6346   35.2177 H   0  0  0  0  0  0  0  0  0  0  0  0
   45.8656   32.7529   25.3828 H   0  0  0  0  0  0  0  0  0  0  0  0
  1  2  1  0  0  0  0
  1 10  1  0  0  0  0
  1 28  1  0  0  0  0
  1 29  1  0  0  0  0
  2  6  1  0  0  0  0
  2 30  1  0  0  0  0
  2 31  1  0  0  0  0
  3  4  1  0  0  0  0
  3  6  1  0  0  0  0
  3 32  1  0  0  0  0
  3 33  1  0  0  0  0
  4 10  1  0  0  0  0
  4 34  1  0  0  0  0
  4 35  1  0  0  0  0
  5  8  1  0  0  0  0
  5 13  2  0  0  0  0
  5 36  1  0  0  0  0
  7 18  1  0  0  0  0
  7 24  2  0  0  0  0
  7 25  1  0  0  0  0
  8 19  2  0  0  0  0
  8 21  1  0  0  0  0
  9 23  1  0  0  0  0
  9 26  2  0  0  0  0
  9 27  1  0  0  0  0
 10 27  1  0  0  0  0
 10 37  1  0  0  0  0
 11 12  1  0  0  0  0
 11 16  2  0  0  0  0
 11 17  1  0  0  0  0
 12 18  2  0  0  0  0
 12 38  1  0  0  0  0
 13 14  1  0  0  0  0
 13 46  1  0  0  0  0
 14 15  2  0  0  0  0
 14 39  1  0  0  0  0
 15 19  1  0  0  0  0
 15 40  1  0  0  0  0
 16 25  1  0  0  0  0
 16 26  1  0  0  0  0
 17 23  2  0  0  0  0
 17 41  1  0  0  0  0
 18 22  1  0  0  0  0
 19 22  1  0  0  0  0
 20 25  1  0  0  0  0
 20 42  1  0  0  0  0
 20 43  1  0  0  0  0
 20 44  1  0  0  0  0
 27 45  1  0  0  0  0
M  END
>  <r_user_dG.exp>
-9.477000

$$$$
p38a_2s
  PyMOL2.3          3D                             0

 54 57  0  0  1  0  0  0  0  0999 V2000
   45.9822   32.8976   28.0582 C   0  0  0  0  0  0  0  0  0  0  0  0
   42.5879   33.6758   32.7594 C   0  0  0  0  0  0  0  0  0  0  0  0
   45.3477   32.9138   29.3154 C   0  0  0  0  0  0  0  0  0  0  0  0
   44.1386   37.8930   34.3650 C   0  0  0  0  0  0  0  0  0  0  0  0
   43.9947   36.1282   32.3469 C   0  0  0  0  0  0  0  0  0  0  0  0
   43.9375   35.1132   31.3003 C   0  0  0  0  0  0  0  0  0  0  0  0
   45.2179   32.9711   26.8778 C   0  0  0  0  0  0  0  0  0  0  0  0
   43.8157   33.0295   26.9542 C   0  0  0  0  0  0  0  0  0  0  0  0
   43.1811   33.0201   28.2087 C   0  0  0  0  0  0  0  0  0  0  0  0
   43.4063   35.8418   33.5968 C   0  0  0  0  0  0  0  0  0  0  0  0
   44.6266   37.3796   32.1963 C   0  0  0  0  0  0  0  0  0  0  0  0
   43.3024   33.9386   31.5063 C   0  0  0  0  0  0  0  0  0  0  0  0
   43.9395   32.9775   29.3940 C   0  0  0  0  0  0  0  0  0  0  0  0
   46.0798   32.8787   30.4288 F   0  0  0  0  0  0  0  0  0  0  0  0
   43.2835   32.9028   30.5961 O   0  0  0  0  0  0  0  0  0  0  0  0
   44.7061   38.2628   33.2160 N   0  0  0  0  0  0  0  0  0  0  0  0
   41.8876   32.6729   32.8931 O   0  0  0  0  0  0  0  0  0  0  0  0
   42.7267   34.5925   33.7618 N   0  0  0  0  0  0  0  0  0  0  0  0
   43.4927   36.7498   34.5953 N   0  0  0  0  0  0  0  0  0  0  0  0
   44.2255   38.7864   35.4112 N   0  0  0  0  0  0  0  0  0  0  0  0
   47.0577   32.8499   27.9984 H   0  0  0  0  0  0  0  0  0  0  0  0
   44.4659   35.3279   30.3847 H   0  0  0  0  0  0  0  0  0  0  0  0
   43.2252   33.0736   26.0510 H   0  0  0  0  0  0  0  0  0  0  0  0
   42.1024   33.0265   28.2626 H   0  0  0  0  0  0  0  0  0  0  0  0
   45.0929   37.6601   31.2647 H   0  0  0  0  0  0  0  0  0  0  0  0
   44.7410   39.6346   35.2177 H   0  0  0  0  0  0  0  0  0  0  0  0
   45.8174   32.9944   25.6874 F   0  0  0  0  0  0  0  0  0  0  0  0
   43.5405   39.7718   39.0236 C   0  0  0  0  0  0  0  0  0  0  0  0
   44.0438   39.9079   37.5777 C   0  0  0  0  0  0  0  0  0  0  0  0
   43.7020   38.6546   36.7560 C   0  0  0  0  0  0  0  0  0  0  0  0
   44.2708   37.3900   37.4193 C   0  0  0  0  0  0  0  0  0  0  0  0
   43.7674   37.2538   38.8652 C   0  0  0  0  0  0  0  0  0  0  0  0
   44.1093   38.5071   39.6870 O   0  0  0  0  0  0  0  0  0  0  0  0
   42.4250   39.7228   39.0258 H   0  0  0  0  0  0  0  0  0  0  0  0
   43.8283   40.6752   39.6147 H   0  0  0  0  0  0  0  0  0  0  0  0
   45.1503   40.0591   37.5820 H   0  0  0  0  0  0  0  0  0  0  0  0
   43.5933   40.8122   37.1002 H   0  0  0  0  0  0  0  0  0  0  0  0
   42.5930   38.5604   36.6659 H   0  0  0  0  0  0  0  0  0  0  0  0
   43.9832   36.4866   36.8282 H   0  0  0  0  0  0  0  0  0  0  0  0
   45.3865   37.4390   37.4171 H   0  0  0  0  0  0  0  0  0  0  0  0
   42.6612   37.1026   38.8609 H   0  0  0  0  0  0  0  0  0  0  0  0
   44.2180   36.3496   39.3427 H   0  0  0  0  0  0  0  0  0  0  0  0
   42.1086   34.3285   35.0456 C   0  0  0  0  0  0  0  0  0  0  0  0
   42.3214   35.1768   35.7435 H   0  0  0  0  0  0  0  0  0  0  0  0
   41.0026   34.2237   34.9124 H   0  0  0  0  0  0  0  0  0  0  0  0
   42.6757   33.0367   35.6271 C   0  0  2  0  0  0  0  0  0  0  0  0
   42.4075   31.9678   34.7476 O   0  0  0  0  0  0  0  0  0  0  0  0
   41.4545   31.9211   34.6684 H   0  0  0  0  0  0  0  0  0  0  0  0
   42.0250   32.7594   36.9793 C   0  0  0  0  0  0  0  0  0  0  0  0
   40.9189   32.6544   36.8464 H   0  0  0  0  0  0  0  0  0  0  0  0
   42.2379   33.6080   37.6768 H   0  0  0  0  0  0  0  0  0  0  0  0
   43.7530   33.1385   35.7575 H   0  0  0  0  0  0  0  0  0  0  0  0
   42.5490   31.5660   37.5171 O   0  0  0  0  0  0  0  0  0  0  0  0
   43.4912   31.7074   37.6105 H   0  0  0  0  0  0  0  0  0  0  0  0
  1  3  1  0  0  0  0
  1  7  2  0  0  0  0
  1 21  1  0  0  0  0
  2 12  1  0  0  0  0
  2 17  2  0  0  0  0
  2 18  1  0  0  0  0
  3 13  2  0  0  0  0
  3 14  1  0  0  0  0
  4 16  1  0  0  0  0
  4 19  2  0  0  0  0
  4 20  1  0  0  0  0
  5  6  1  0  0  0  0
  5 10  2  0  0  0  0
  5 11  1  0  0  0  0
  6 12  2  0  0  0  0
  6 22  1  0  0  0  0
  7  8  1  0  0  0  0
  7 27  1  0  0  0  0
  8  9  2  0  0  0  0
  8 23  1  0  0  0  0
  9 13  1  0  0  0  0
  9 24  1  0  0  0  0
 10 18  1  0  0  0  0
 10 19  1  0  0  0  0
 11 16  2  0  0  0  0
 11 25  1  0  0  0  0
 12 15  1  0  0  0  0
 13 15  1  0  0  0  0
 18 43  1  0  0  0  0
 20 26  1  0  0  0  0
 20 30  1  0  0  0  0
 28 29  1  0  0  0  0
 28 33  1  0  0  0  0
 28 34  1  0  0  0  0
 28 35  1  0  0  0  0
 29 30  1  0  0  0  0
 29 36  1  0  0  0  0
 29 37  1  0  0  0  0
 30 31  1  0  0  0  0
 30 38  1  0  0  0  0
 31 32  1  0  0  0  0
 31 39  1  0  0  0  0
 31 40  1  0  0  0  0
 32 33  1  0  0  0  0
 32 41  1  0  0  0  0
 32 42  1  0  0  0  0
 43 44  1  0  0  0  0
 43 45  1  0  0  0  0
 43 46  1  0  0  0  0
 46 47  1  0  0  0  0
 46 49  1  0  0  0  0
 46 52  1  0  0  0  0
 47 48  1  0  0  0  0
 49 50  1  0  0  0  0
 49 51  1  0  0  0  0
 49 53  1  0  0  0  0
 53 54  1  0  0  0  0
M  END
>  <r_user_dG.exp>
-11.112000

$$$$
p38a_2bb
  PyMOL2.3          3D                             0

 44 46  0  0  0  0  0  0  0  0999 V2000
   45.9822   32.8976   28.0582 C   0  0  0  0  0  0  0  0  0  0  0  0
   42.5879   33.6758   32.7594 C   0  0  0  0  0  0  0  0  0  0  0  0
   45.3477   32.9138   29.3154 C   0  0  0  0  0  0  0  0  0  0  0  0
   44.1386   37.8930   34.3650 C   0  0  0  0  0  0  0  0  0  0  0  0
   43.6961   38.6555   36.7633 C   0  0  0  0  0  0  0  0  0  0  0  0
   43.9947   36.1282   32.3469 C   0  0  0  0  0  0  0  0  0  0  0  0
   43.9375   35.1132   31.3003 C   0  0  0  0  0  0  0  0  0  0  0  0
   45.2179   32.9711   26.8778 C   0  0  0  0  0  0  0  0  0  0  0  0
   43.8157   33.0295   26.9542 C   0  0  0  0  0  0  0  0  0  0  0  0
   43.1811   33.0201   28.2087 C   0  0  0  0  0  0  0  0  0  0  0  0
   43.4063   35.8418   33.5968 C   0  0  0  0  0  0  0  0  0  0  0  0
   44.6266   37.3796   32.1963 C   0  0  0  0  0  0  0  0  0  0  0  0
   43.3024   33.9386   31.5063 C   0  0  0  0  0  0  0  0  0  0  0  0
   43.9395   32.9775   29.3940 C   0  0  0  0  0  0  0  0  0  0  0  0
   42.0985   34.3242   35.0664 C   0  0  0  0  0  0  0  0  0  0  0  0
   46.0798   32.8787   30.4288 F   0  0  0  0  0  0  0  0  0  0  0  0
   43.2835   32.9028   30.5961 O   0  0  0  0  0  0  0  0  0  0  0  0
   44.7061   38.2628   33.2160 N   0  0  0  0  0  0  0  0  0  0  0  0
   41.8876   32.6729   32.8931 O   0  0  0  0  0  0  0  0  0  0  0  0
   42.7267   34.5925   33.7618 N   0  0  0  0  0  0  0  0  0  0  0  0
   43.4927   36.7498   34.5953 N   0  0  0  0  0  0  0  0  0  0  0  0
   44.2255   38.7864   35.4112 N   0  0  0  0  0  0  0  0  0  0  0  0
   47.0577   32.8499   27.9984 H   0  0  0  0  0  0  0  0  0  0  0  0
   43.5837   37.5964   36.9972 H   0  0  0  0  0  0  0  0  0  0  0  0
   44.4659   35.3279   30.3847 H   0  0  0  0  0  0  0  0  0  0  0  0
   43.2252   33.0736   26.0510 H   0  0  0  0  0  0  0  0  0  0  0  0
   42.1024   33.0265   28.2626 H   0  0  0  0  0  0  0  0  0  0  0  0
   45.0929   37.6601   31.2647 H   0  0  0  0  0  0  0  0  0  0  0  0
   42.7396   34.6470   35.8872 H   0  0  0  0  0  0  0  0  0  0  0  0
   41.1557   34.8670   35.1423 H   0  0  0  0  0  0  0  0  0  0  0  0
   41.8943   33.2689   35.2531 H   0  0  0  0  0  0  0  0  0  0  0  0
   44.7410   39.6346   35.2177 H   0  0  0  0  0  0  0  0  0  0  0  0
   45.8174   32.9944   25.6874 F   0  0  0  0  0  0  0  0  0  0  0  0
   44.6442   39.2918   37.7360 C   0  0  0  0  0  0  0  0  0  0  0  0
   42.7271   39.1511   36.8241 H   0  0  0  0  0  0  0  0  0  0  0  0
   45.6133   38.7966   37.6763 H   0  0  0  0  0  0  0  0  0  0  0  0
   44.7608   40.3479   37.4927 H   0  0  0  0  0  0  0  0  0  0  0  0
   44.9319   39.7633   40.3825 C   0  0  0  0  0  0  0  0  0  0  0  0
   43.9768   39.1242   39.4183 S   0  0  0  0  0  0  0  0  0  0  0  0
   42.6982   39.8705   39.4821 O   0  0  0  0  0  0  0  0  0  0  0  0
   43.9007   37.6799   39.7398 O   0  0  0  0  0  0  0  0  0  0  0  0
   45.8840   39.2333   40.3567 H   0  0  0  0  0  0  0  0  0  0  0  0
   45.0888   40.8050   40.1026 H   0  0  0  0  0  0  0  0  0  0  0  0
   44.5178   39.7168   41.3897 H   0  0  0  0  0  0  0  0  0  0  0  0
  1  3  1  0  0  0  0
  1  8  2  0  0  0  0
  1 23  1  0  0  0  0
  2 13  1  0  0  0  0
  2 19  2  0  0  0  0
  2 20  1  0  0  0  0
  3 14  2  0  0  0  0
  3 16  1  0  0  0  0
  4 18  1  0  0  0  0
  4 21  2  0  0  0  0
  4 22  1  0  0  0  0
  5 22  1  0  0  0  0
  5 24  1  0  0  0  0
  5 34  1  0  0  0  0
  5 35  1  0  0  0  0
  6  7  1  0  0  0  0
  6 11  2  0  0  0  0
  6 12  1  0  0  0  0
  7 13  2  0  0  0  0
  7 25  1  0  0  0  0
  8  9  1  0  0  0  0
  8 33  1  0  0  0  0
  9 10  2  0  0  0  0
  9 26  1  0  0  0  0
 10 14  1  0  0  0  0
 10 27  1  0  0  0  0
 11 20  1  0  0  0  0
 11 21  1  0  0  0  0
 12 18  2  0  0  0  0
 12 28  1  0  0  0  0
 13 17  1  0  0  0  0
 14 17  1  0  0  0  0
 15 20  1  0  0  0  0
 15 29  1  0  0  0  0
 15 30  1  0  0  0  0
 15 31  1  0  0  0  0
 22 32  1  0  0  0  0
 34 36  1  0  0  0  0
 34 37  1  0  0  0  0
 34 39  1  0  0  0  0
 38 39  1  0  0  0  0
 38 42  1  0  0  0  0
 38 43  1  0  0  0  0
 38 44  1  0  0  0  0
 39 40  2  0  0  0  0
 39 41  2  0  0  0  0
M  END
>  <r_user_dG.exp>
-9.064000

$$$$
p38a_2q
  PyMOL2.3          3D                             0

 59 63  0  0  0  0  0  0  0  0999 V2000
   45.9822   32.8976   28.0582 C   0  0  0  0  0  0  0  0  0  0  0  0
   42.5879   33.6758   32.7594 C   0  0  0  0  0  0  0  0  0  0  0  0
   45.3477   32.9138   29.3154 C   0  0  0  0  0  0  0  0  0  0  0  0
   44.1386   37.8930   34.3650 C   0  0  0  0  0  0  0  0  0  0  0  0
   43.9947   36.1282   32.3469 C   0  0  0  0  0  0  0  0  0  0  0  0
   43.9375   35.1132   31.3003 C   0  0  0  0  0  0  0  0  0  0  0  0
   45.2179   32.9711   26.8778 C   0  0  0  0  0  0  0  0  0  0  0  0
   43.8157   33.0295   26.9542 C   0  0  0  0  0  0  0  0  0  0  0  0
   43.1811   33.0201   28.2087 C   0  0  0  0  0  0  0  0  0  0  0  0
   43.4063   35.8418   33.5968 C   0  0  0  0  0  0  0  0  0  0  0  0
   44.6266   37.3796   32.1963 C   0  0  0  0  0  0  0  0  0  0  0  0
   43.3024   33.9386   31.5063 C   0  0  0  0  0  0  0  0  0  0  0  0
   43.9395   32.9775   29.3940 C   0  0  0  0  0  0  0  0  0  0  0  0
   46.0798   32.8787   30.4288 F   0  0  0  0  0  0  0  0  0  0  0  0
   43.2835   32.9028   30.5961 O   0  0  0  0  0  0  0  0  0  0  0  0
   44.7061   38.2628   33.2160 N   0  0  0  0  0  0  0  0  0  0  0  0
   41.8876   32.6729   32.8931 O   0  0  0  0  0  0  0  0  0  0  0  0
   42.7267   34.5925   33.7618 N   0  0  0  0  0  0  0  0  0  0  0  0
   43.4927   36.7498   34.5953 N   0  0  0  0  0  0  0  0  0  0  0  0
   44.2255   38.7864   35.4112 N   0  0  0  0  0  0  0  0  0  0  0  0
   47.0577   32.8499   27.9984 H   0  0  0  0  0  0  0  0  0  0  0  0
   44.4659   35.3279   30.3847 H   0  0  0  0  0  0  0  0  0  0  0  0
   43.2252   33.0736   26.0510 H   0  0  0  0  0  0  0  0  0  0  0  0
   42.1024   33.0265   28.2626 H   0  0  0  0  0  0  0  0  0  0  0  0
   45.0929   37.6601   31.2647 H   0  0  0  0  0  0  0  0  0  0  0  0
   44.7410   39.6346   35.2177 H   0  0  0  0  0  0  0  0  0  0  0  0
   45.8174   32.9944   25.6874 F   0  0  0  0  0  0  0  0  0  0  0  0
   43.5405   39.7718   39.0236 C   0  0  0  0  0  0  0  0  0  0  0  0
   44.0438   39.9079   37.5777 C   0  0  0  0  0  0  0  0  0  0  0  0
   43.7020   38.6546   36.7560 C   0  0  0  0  0  0  0  0  0  0  0  0
   44.2708   37.3900   37.4193 C   0  0  0  0  0  0  0  0  0  0  0  0
   43.7674   37.2538   38.8652 C   0  0  0  0  0  0  0  0  0  0  0  0
   44.1093   38.5071   39.6870 O   0  0  0  0  0  0  0  0  0  0  0  0
   42.4250   39.7228   39.0258 H   0  0  0  0  0  0  0  0  0  0  0  0
   43.8283   40.6752   39.6147 H   0  0  0  0  0  0  0  0  0  0  0  0
   45.1503   40.0591   37.5820 H   0  0  0  0  0  0  0  0  0  0  0  0
   43.5933   40.8122   37.1002 H   0  0  0  0  0  0  0  0  0  0  0  0
   42.5930   38.5604   36.6659 H   0  0  0  0  0  0  0  0  0  0  0  0
   43.9832   36.4866   36.8282 H   0  0  0  0  0  0  0  0  0  0  0  0
   45.3865   37.4390   37.4171 H   0  0  0  0  0  0  0  0  0  0  0  0
   42.6612   37.1026   38.8609 H   0  0  0  0  0  0  0  0  0  0  0  0
   44.2180   36.3496   39.3427 H   0  0  0  0  0  0  0  0  0  0  0  0
   41.9216   35.2161   37.4296 C   0  0  0  0  0  0  0  0  0  0  0  0
   42.4595   35.4999   36.0178 C   0  0  0  0  0  0  0  0  0  0  0  0
   42.1714   34.3223   35.0726 C   0  0  0  0  0  0  0  0  0  0  0  0
   42.7546   33.0140   35.6304 C   0  0  0  0  0  0  0  0  0  0  0  0
   42.2168   32.7303   37.0422 C   0  0  0  0  0  0  0  0  0  0  0  0
   40.8080   35.1418   37.3951 H   0  0  0  0  0  0  0  0  0  0  0  0
   42.1706   36.0661   38.1108 H   0  0  0  0  0  0  0  0  0  0  0  0
   43.5612   35.6752   36.0681 H   0  0  0  0  0  0  0  0  0  0  0  0
   41.9988   36.4346   35.6145 H   0  0  0  0  0  0  0  0  0  0  0  0
   41.0680   34.2117   34.9424 H   0  0  0  0  0  0  0  0  0  0  0  0
   42.5057   32.1641   34.9492 H   0  0  0  0  0  0  0  0  0  0  0  0
   43.8682   33.0885   35.6650 H   0  0  0  0  0  0  0  0  0  0  0  0
   41.1152   32.5549   36.9920 H   0  0  0  0  0  0  0  0  0  0  0  0
   42.6774   31.7956   37.4455 H   0  0  0  0  0  0  0  0  0  0  0  0
   42.5161   33.9061   38.0071 S   0  0  0  0  0  0  0  0  0  0  0  0
   43.9872   34.0686   38.0793 O   0  0  0  0  0  0  0  0  0  0  0  0
   41.8314   33.6258   39.2908 O   0  0  0  0  0  0  0  0  0  0  0  0
  1  3  1  0  0  0  0
  1  7  2  0  0  0  0
  1 21  1  0  0  0  0
  2 12  1  0  0  0  0
  2 17  2  0  0  0  0
  2 18  1  0  0  0  0
  3 13  2  0  0  0  0
  3 14  1  0  0  0  0
  4 16  1  0  0  0  0
  4 19  2  0  0  0  0
  4 20  1  0  0  0  0
  5  6  1  0  0  0  0
  5 10  2  0  0  0  0
  5 11  1  0  0  0  0
  6 12  2  0  0  0  0
  6 22  1  0  0  0  0
  7  8  1  0  0  0  0
  7 27  1  0  0  0  0
  8  9  2  0  0  0  0
  8 23  1  0  0  0  0
  9 13  1  0  0  0  0
  9 24  1  0  0  0  0
 10 18  1  0  0  0  0
 10 19  1  0  0  0  0
 11 16  2  0  0  0  0
 11 25  1  0  0  0  0
 12 15  1  0  0  0  0
 13 15  1  0  0  0  0
 18 45  1  0  0  0  0
 20 26  1  0  0  0  0
 20 30  1  0  0  0  0
 28 29  1  0  0  0  0
 28 33  1  0  0  0  0
 28 34  1  0  0  0  0
 28 35  1  0  0  0  0
 29 30  1  0  0  0  0
 29 36  1  0  0  0  0
 29 37  1  0  0  0  0
 30 31  1  0  0  0  0
 30 38  1  0  0  0  0
 31 32  1  0  0  0  0
 31 39  1  0  0  0  0
 31 40  1  0  0  0  0
 32 33  1  0  0  0  0
 32 41  1  0  0  0  0
 32 42  1  0  0  0  0
 43 44  1  0  0  0  0
 43 48  1  0  0  0  0
 43 49  1  0  0  0  0
 43 57  1  0  0  0  0
 44 45  1  0  0  0  0
 44 50  1  0  0  0  0
 44 51  1  0  0  0  0
 45 46  1  0  0  0  0
 45 52  1  0  0  0  0
 46 47  1  0  0  0  0
 46 53  1  0  0  0  0
 46 54  1  0  0  0  0
 47 55  1  0  0  0  0
 47 56  1  0  0  0  0
 47 57  1  0  0  0  0
 57 58  2  0  0  0  0
 57 59  2  0  0  0  0
M  END
>  <r_user_dG.exp>
-12.264000

$$$$
p38a_2z
  PyMOL2.3          3D                             0

 45 47  0  0  0  0  0  0  0  0999 V2000
   45.9822   32.8976   28.0582 C   0  0  0  0  0  0  0  0  0  0  0  0
   42.5879   33.6758   32.7594 C   0  0  0  0  0  0  0  0  0  0  0  0
   45.3477   32.9138   29.3154 C   0  0  0  0  0  0  0  0  0  0  0  0
   44.1386   37.8930   34.3650 C   0  0  0  0  0  0  0  0  0  0  0  0
   43.6961   38.6555   36.7633 C   0  0  0  0  0  0  0  0  0  0  0  0
   43.9947   36.1282   32.3469 C   0  0  0  0  0  0  0  0  0  0  0  0
   43.9375   35.1132   31.3003 C   0  0  0  0  0  0  0  0  0  0  0  0
   45.2179   32.9711   26.8778 C   0  0  0  0  0  0  0  0  0  0  0  0
   43.8157   33.0295   26.9542 C   0  0  0  0  0  0  0  0  0  0  0  0
   43.1811   33.0201   28.2087 C   0  0  0  0  0  0  0  0  0  0  0  0
   43.4063   35.8418   33.5968 C   0  0  0  0  0  0  0  0  0  0  0  0
   44.6266   37.3796   32.1963 C   0  0  0  0  0  0  0  0  0  0  0  0
   43.3024   33.9386   31.5063 C   0  0  0  0  0  0  0  0  0  0  0  0
   43.9395   32.9775   29.3940 C   0  0  0  0  0  0  0  0  0  0  0  0
   42.0985   34.3242   35.0664 C   0  0  0  0  0  0  0  0  0  0  0  0
   46.0798   32.8787   30.4288 F   0  0  0  0  0  0  0  0  0  0  0  0
   43.2835   32.9028   30.5961 O   0  0  0  0  0  0  0  0  0  0  0  0
   44.7061   38.2628   33.2160 N   0  0  0  0  0  0  0  0  0  0  0  0
   41.8876   32.6729   32.8931 O   0  0  0  0  0  0  0  0  0  0  0  0
   42.7267   34.5925   33.7618 N   0  0  0  0  0  0  0  0  0  0  0  0
   43.4927   36.7498   34.5953 N   0  0  0  0  0  0  0  0  0  0  0  0
   44.2255   38.7864   35.4112 N   0  0  0  0  0  0  0  0  0  0  0  0
   47.0577   32.8499   27.9984 H   0  0  0  0  0  0  0  0  0  0  0  0
   43.5416   37.1987   37.0850 C   0  0  0  0  0  0  0  0  0  0  0  0
   44.4659   35.3279   30.3847 H   0  0  0  0  0  0  0  0  0  0  0  0
   43.2252   33.0736   26.0510 H   0  0  0  0  0  0  0  0  0  0  0  0
   42.1024   33.0265   28.2626 H   0  0  0  0  0  0  0  0  0  0  0  0
   45.0929   37.6601   31.2647 H   0  0  0  0  0  0  0  0  0  0  0  0
   42.7396   34.6470   35.8872 H   0  0  0  0  0  0  0  0  0  0  0  0
   41.1557   34.8670   35.1423 H   0  0  0  0  0  0  0  0  0  0  0  0
   41.8943   33.2689   35.2531 H   0  0  0  0  0  0  0  0  0  0  0  0
   44.7410   39.6346   35.2177 H   0  0  0  0  0  0  0  0  0  0  0  0
   45.8174   32.9944   25.6874 F   0  0  0  0  0  0  0  0  0  0  0  0
   44.6442   39.2918   37.7360 C   0  0  0  0  0  0  0  0  0  0  0  0
   42.3626   39.3375   36.8470 C   0  0  0  0  0  0  0  0  0  0  0  0
   45.8979   38.6512   37.6588 O   0  0  0  0  0  0  0  0  0  0  0  0
   46.5046   39.0585   38.2813 H   0  0  0  0  0  0  0  0  0  0  0  0
   44.7608   40.3479   37.4927 H   0  0  0  0  0  0  0  0  0  0  0  0
   44.2484   39.1940   38.7469 H   0  0  0  0  0  0  0  0  0  0  0  0
   41.9668   39.2396   37.8579 H   0  0  0  0  0  0  0  0  0  0  0  0
   42.4781   40.3935   36.6032 H   0  0  0  0  0  0  0  0  0  0  0  0
   41.6727   38.8754   36.1409 H   0  0  0  0  0  0  0  0  0  0  0  0
   43.1460   37.0890   38.0947 H   0  0  0  0  0  0  0  0  0  0  0  0
   42.8541   36.7399   36.3742 H   0  0  0  0  0  0  0  0  0  0  0  0
   44.5122   36.7068   37.0202 H   0  0  0  0  0  0  0  0  0  0  0  0
  1  3  1  0  0  0  0
  1  8  2  0  0  0  0
  1 23  1  0  0  0  0
  2 13  1  0  0  0  0
  2 19  2  0  0  0  0
  2 20  1  0  0  0  0
  3 14  2  0  0  0  0
  3 16  1  0  0  0  0
  4 18  1  0  0  0  0
  4 21  2  0  0  0  0
  4 22  1  0  0  0  0
  5 22  1  0  0  0  0
  5 24  1  0  0  0  0
  5 34  1  0  0  0  0
  5 35  1  0  0  0  0
  6  7  1  0  0  0  0
  6 11  2  0  0  0  0
  6 12  1  0  0  0  0
  7 13  2  0  0  0  0
  7 25  1  0  0  0  0
  8  9  1  0  0  0  0
  8 33  1  0  0  0  0
  9 10  2  0  0  0  0
  9 26  1  0  0  0  0
 10 14  1  0  0  0  0
 10 27  1  0  0  0  0
 11 20  1  0  0  0  0
 11 21  1  0  0  0  0
 12 18  2  0  0  0  0
 12 28  1  0  0  0  0
 13 17  1  0  0  0  0
 14 17  1  0  0  0  0
 15 20  1  0  0  0  0
 15 29  1  0  0  0  0
 15 30  1  0  0  0  0
 15 31  1  0  0  0  0
 22 32  1  0  0  0  0
 24 43  1  0  0  0  0
 24 44  1  0  0  0  0
 24 45  1  0  0  0  0
 34 36  1  0  0  0  0
 34 38  1  0  0  0  0
 34 39  1  0  0  0  0
 35 40  1  0  0  0  0
 35 41  1  0  0  0  0
 35 42  1  0  0  0  0
 36 37  1  0  0  0  0
M  END
>  <r_user_dG.exp>
-10.359000

$$$$
p38a_3fmh
  PyMOL2.3          3D                             0

 46 49  0  0  1  0  0  0  0  0999 V2000
   45.7662   33.0166   25.6670 F   0  0  0  0  0  0  0  0  0  0  0  0
   45.1874   32.9308   26.8867 C   0  0  0  0  0  0  0  0  0  0  0  0
   43.7858   32.9503   27.0009 C   0  0  0  0  0  0  0  0  0  0  0  0
   43.1833   32.8766   28.2690 C   0  0  0  0  0  0  0  0  0  0  0  0
   45.9851   32.8349   28.0431 C   0  0  0  0  0  0  0  0  0  0  0  0
   45.3839   32.7848   29.3140 C   0  0  0  0  0  0  0  0  0  0  0  0
   46.1568   32.7411   30.4249 F   0  0  0  0  0  0  0  0  0  0  0  0
   43.9769   32.8030   29.4309 C   0  0  0  0  0  0  0  0  0  0  0  0
   43.3629   32.6831   30.6504 O   0  0  0  0  0  0  0  0  0  0  0  0
   43.2745   33.7478   31.5190 C   0  0  0  0  0  0  0  0  0  0  0  0
   42.4408   33.5239   32.7050 C   0  0  0  0  0  0  0  0  0  0  0  0
   41.7927   32.4854   32.8383 O   0  0  0  0  0  0  0  0  0  0  0  0
   42.4047   34.5138   33.6435 N   0  0  0  0  0  0  0  0  0  0  0  0
   41.6171   34.3145   34.8724 C   0  0  0  0  0  0  0  0  0  0  0  0
   43.0778   35.7676   33.4873 C   0  0  0  0  0  0  0  0  0  0  0  0
   43.0150   36.7310   34.4304 N   0  0  0  0  0  0  0  0  0  0  0  0
   43.9166   34.9243   31.3302 C   0  0  0  0  0  0  0  0  0  0  0  0
   43.8375   35.9887   32.3202 C   0  0  0  0  0  0  0  0  0  0  0  0
   44.5029   37.2269   32.1995 C   0  0  0  0  0  0  0  0  0  0  0  0
   44.4403   38.1631   33.1709 N   0  0  0  0  0  0  0  0  0  0  0  0
   43.6966   37.8574   34.2364 C   0  0  0  0  0  0  0  0  0  0  0  0
   43.6540   38.7862   35.2502 N   0  0  0  0  0  0  0  0  0  0  0  0
   42.8634   38.7530   36.4750 C   0  0  2  0  0  0  0  0  0  0  0  0
   42.3267   40.1498   36.7952 C   0  0  0  0  0  0  0  0  0  0  0  0
   43.6416   38.1041   37.6416 C   0  0  0  0  0  0  0  0  0  0  0  0
   44.9023   38.7579   37.9588 N   0  0  0  0  0  0  0  0  0  0  0  0
   46.0887   38.2887   37.5262 N   0  0  0  0  0  0  0  0  0  0  0  0
   46.8945   39.1875   38.0688 C   0  0  0  0  0  0  0  0  0  0  0  0
   46.2517   40.1446   38.7956 N   0  0  0  0  0  0  0  0  0  0  0  0
   44.9904   39.8636   38.7271 N   0  0  0  0  0  0  0  0  0  0  0  0
   43.1722   33.0181   26.1160 H   0  0  0  0  0  0  0  0  0  0  0  0
   42.1089   32.8686   28.3551 H   0  0  0  0  0  0  0  0  0  0  0  0
   47.0600   32.8289   27.9554 H   0  0  0  0  0  0  0  0  0  0  0  0
   42.1468   34.6932   35.7477 H   0  0  0  0  0  0  0  0  0  0  0  0
   40.6711   34.8521   34.7974 H   0  0  0  0  0  0  0  0  0  0  0  0
   41.3931   33.2710   35.0984 H   0  0  0  0  0  0  0  0  0  0  0  0
   44.5346   35.1112   30.4660 H   0  0  0  0  0  0  0  0  0  0  0  0
   45.1052   37.4549   31.3334 H   0  0  0  0  0  0  0  0  0  0  0  0
   44.2408   39.5994   35.1240 H   0  0  0  0  0  0  0  0  0  0  0  0
   41.9872   38.1297   36.2920 H   0  0  0  0  0  0  0  0  0  0  0  0
   41.7129   40.1402   37.6969 H   0  0  0  0  0  0  0  0  0  0  0  0
   43.1294   40.8703   36.9423 H   0  0  0  0  0  0  0  0  0  0  0  0
   41.7041   40.5090   35.9765 H   0  0  0  0  0  0  0  0  0  0  0  0
   43.0247   38.0947   38.5408 H   0  0  0  0  0  0  0  0  0  0  0  0
   43.8474   37.0587   37.4062 H   0  0  0  0  0  0  0  0  0  0  0  0
   47.9661   39.1554   37.9386 H   0  0  0  0  0  0  0  0  0  0  0  0
  1  2  1  0  0  0  0
  2  3  1  0  0  0  0
  2  5  2  0  0  0  0
  3  4  2  0  0  0  0
  3 31  1  0  0  0  0
  4  8  1  0  0  0  0
  4 32  1  0  0  0  0
  5  6  1  0  0  0  0
  5 33  1  0  0  0  0
  6  7  1  0  0  0  0
  6  8  2  0  0  0  0
  8  9  1  0  0  0  0
  9 10  1  0  0  0  0
 10 11  1  0  0  0  0
 10 17  2  0  0  0  0
 11 12  2  0  0  0  0
 11 13  1  0  0  0  0
 13 14  1  0  0  0  0
 13 15  1  0  0  0  0
 14 34  1  0  0  0  0
 14 35  1  0  0  0  0
 14 36  1  0  0  0  0
 15 16  1  0  0  0  0
 15 18  2  0  0  0  0
 16 21  2  0  0  0  0
 17 18  1  0  0  0  0
 17 37  1  0  0  0  0
 18 19  1  0  0  0  0
 19 20  2  0  0  0  0
 19 38  1  0  0  0  0
 20 21  1  0  0  0  0
 21 22  1  0  0  0  0
 22 23  1  0  0  0  0
 22 39  1  0  0  0  0
 23 24  1  0  0  0  0
 23 25  1  0  0  0  0
 23 40  1  0  0  0  0
 24 41  1  0  0  0  0
 24 42  1  0  0  0  0
 24 43  1  0  0  0  0
 25 26  1  0  0  0  0
 25 44  1  0  0  0  0
 25 45  1  0  0  0  0
 26 27  1  0  0  0  0
 26 30  1  0  0  0  0
 27 28  2  0  0  0  0
 28 29  1  0  0  0  0
 28 46  1  0  0  0  0
 29 30  2  0  0  0  0
M  END
>  <r_user_dG.exp>
-10.825400

$$$$
p38a_2f
  PyMOL2.3          3D                             0

 46 49  0  0  0  0  0  0  0  0999 V2000
   42.3250   39.3307   36.8840 C   0  0  0  0  0  0  0  0  0  0  0  0
   41.8162   39.2582   38.3328 C   0  0  0  0  0  0  0  0  0  0  0  0
   44.0213   39.1916   39.2074 C   0  0  0  0  0  0  0  0  0  0  0  0
   44.6441   39.2671   37.8046 C   0  0  0  0  0  0  0  0  0  0  0  0
   45.9822   32.8976   28.0582 C   0  0  0  0  0  0  0  0  0  0  0  0
   42.7619   39.8553   39.2125 O   0  0  0  0  0  0  0  0  0  0  0  0
   42.5879   33.6758   32.7594 C   0  0  0  0  0  0  0  0  0  0  0  0
   45.3477   32.9138   29.3154 C   0  0  0  0  0  0  0  0  0  0  0  0
   44.1386   37.8930   34.3650 C   0  0  0  0  0  0  0  0  0  0  0  0
   43.6961   38.6555   36.7633 C   0  0  0  0  0  0  0  0  0  0  0  0
   43.9947   36.1282   32.3469 C   0  0  0  0  0  0  0  0  0  0  0  0
   43.9375   35.1132   31.3003 C   0  0  0  0  0  0  0  0  0  0  0  0
   45.2179   32.9711   26.8778 C   0  0  0  0  0  0  0  0  0  0  0  0
   43.8157   33.0295   26.9542 C   0  0  0  0  0  0  0  0  0  0  0  0
   43.1811   33.0201   28.2087 C   0  0  0  0  0  0  0  0  0  0  0  0
   43.4063   35.8418   33.5968 C   0  0  0  0  0  0  0  0  0  0  0  0
   44.6266   37.3796   32.1963 C   0  0  0  0  0  0  0  0  0  0  0  0
   43.3024   33.9386   31.5063 C   0  0  0  0  0  0  0  0  0  0  0  0
   43.9395   32.9775   29.3940 C   0  0  0  0  0  0  0  0  0  0  0  0
   42.0985   34.3242   35.0664 C   0  0  0  0  0  0  0  0  0  0  0  0
   45.9408   32.8854   30.2175 H   0  0  0  0  0  0  0  0  0  0  0  0
   43.2835   32.9028   30.5961 O   0  0  0  0  0  0  0  0  0  0  0  0
   44.7061   38.2628   33.2160 N   0  0  0  0  0  0  0  0  0  0  0  0
   41.8876   32.6729   32.8931 O   0  0  0  0  0  0  0  0  0  0  0  0
   42.7267   34.5925   33.7618 N   0  0  0  0  0  0  0  0  0  0  0  0
   43.4927   36.7498   34.5953 N   0  0  0  0  0  0  0  0  0  0  0  0
   44.2255   38.7864   35.4112 N   0  0  0  0  0  0  0  0  0  0  0  0
   41.6055   38.8596   36.2130 H   0  0  0  0  0  0  0  0  0  0  0  0
   42.4075   40.3723   36.5759 H   0  0  0  0  0  0  0  0  0  0  0  0
   40.8743   39.7956   38.4266 H   0  0  0  0  0  0  0  0  0  0  0  0
   41.6283   38.2258   38.6308 H   0  0  0  0  0  0  0  0  0  0  0  0
   43.9028   38.1548   39.5267 H   0  0  0  0  0  0  0  0  0  0  0  0
   44.6753   39.6762   39.9328 H   0  0  0  0  0  0  0  0  0  0  0  0
   44.8374   40.3136   37.5701 H   0  0  0  0  0  0  0  0  0  0  0  0
   45.6055   38.7526   37.7923 H   0  0  0  0  0  0  0  0  0  0  0  0
   47.3119   32.8386   27.9843 F   0  0  0  0  0  0  0  0  0  0  0  0
   43.5837   37.5964   36.9972 H   0  0  0  0  0  0  0  0  0  0  0  0
   44.4659   35.3279   30.3847 H   0  0  0  0  0  0  0  0  0  0  0  0
   43.2252   33.0736   26.0510 H   0  0  0  0  0  0  0  0  0  0  0  0
   42.1024   33.0265   28.2626 H   0  0  0  0  0  0  0  0  0  0  0  0
   45.0929   37.6601   31.2647 H   0  0  0  0  0  0  0  0  0  0  0  0
   42.7396   34.6470   35.8872 H   0  0  0  0  0  0  0  0  0  0  0  0
   41.1557   34.8670   35.1423 H   0  0  0  0  0  0  0  0  0  0  0  0
   41.8943   33.2689   35.2531 H   0  0  0  0  0  0  0  0  0  0  0  0
   44.7410   39.6346   35.2177 H   0  0  0  0  0  0  0  0  0  0  0  0
   45.7036   32.9900   25.9133 H   0  0  0  0  0  0  0  0  0  0  0  0
  1  2  1  0  0  0  0
  1 10  1  0  0  0  0
  1 28  1  0  0  0  0
  1 29  1  0  0  0  0
  2  6  1  0  0  0  0
  2 30  1  0  0  0  0
  2 31  1  0  0  0  0
  3  4  1  0  0  0  0
  3  6  1  0  0  0  0
  3 32  1  0  0  0  0
  3 33  1  0  0  0  0
  4 10  1  0  0  0  0
  4 34  1  0  0  0  0
  4 35  1  0  0  0  0
  5  8  1  0  0  0  0
  5 13  2  0  0  0  0
  5 36  1  0  0  0  0
  7 18  1  0  0  0  0
  7 24  2  0  0  0  0
  7 25  1  0  0  0  0
  8 19  2  0  0  0  0
  8 21  1  0  0  0  0
  9 23  1  0  0  0  0
  9 26  2  0  0  0  0
  9 27  1  0  0  0  0
 10 27  1  0  0  0  0
 10 37  1  0  0  0  0
 11 12  1  0  0  0  0
 11 16  2  0  0  0  0
 11 17  1  0  0  0  0
 12 18  2  0  0  0  0
 12 38  1  0  0  0  0
 13 14  1  0  0  0  0
 13 46  1  0  0  0  0
 14 15  2  0  0  0  0
 14 39  1  0  0  0  0
 15 19  1  0  0  0  0
 15 40  1  0  0  0  0
 16 25  1  0  0  0  0
 16 26  1  0  0  0  0
 17 23  2  0  0  0  0
 17 41  1  0  0  0  0
 18 22  1  0  0  0  0
 19 22  1  0  0  0  0
 20 25  1  0  0  0  0
 20 42  1  0  0  0  0
 20 43  1  0  0  0  0
 20 44  1  0  0  0  0
 27 45  1  0  0  0  0
M  END
>  <r_user_dG.exp>
-8.484000

$$$$
p38a_2v
  PyMOL2.3          3D                             0

 35 37  0  0  0  0  0  0  0  0999 V2000
   45.9822   32.8976   28.0582 C   0  0  0  0  0  0  0  0  0  0  0  0
   42.5879   33.6758   32.7594 C   0  0  0  0  0  0  0  0  0  0  0  0
   45.3477   32.9138   29.3154 C   0  0  0  0  0  0  0  0  0  0  0  0
   44.1386   37.8930   34.3650 C   0  0  0  0  0  0  0  0  0  0  0  0
   43.6961   38.6555   36.7633 C   0  0  0  0  0  0  0  0  0  0  0  0
   43.9947   36.1282   32.3469 C   0  0  0  0  0  0  0  0  0  0  0  0
   43.9375   35.1132   31.3003 C   0  0  0  0  0  0  0  0  0  0  0  0
   45.2179   32.9711   26.8778 C   0  0  0  0  0  0  0  0  0  0  0  0
   43.8157   33.0295   26.9542 C   0  0  0  0  0  0  0  0  0  0  0  0
   43.1811   33.0201   28.2087 C   0  0  0  0  0  0  0  0  0  0  0  0
   43.4063   35.8418   33.5968 C   0  0  0  0  0  0  0  0  0  0  0  0
   44.6266   37.3796   32.1963 C   0  0  0  0  0  0  0  0  0  0  0  0
   43.3024   33.9386   31.5063 C   0  0  0  0  0  0  0  0  0  0  0  0
   43.9395   32.9775   29.3940 C   0  0  0  0  0  0  0  0  0  0  0  0
   42.0985   34.3242   35.0664 C   0  0  0  0  0  0  0  0  0  0  0  0
   46.0798   32.8787   30.4288 F   0  0  0  0  0  0  0  0  0  0  0  0
   43.2835   32.9028   30.5961 O   0  0  0  0  0  0  0  0  0  0  0  0
   44.7061   38.2628   33.2160 N   0  0  0  0  0  0  0  0  0  0  0  0
   41.8876   32.6729   32.8931 O   0  0  0  0  0  0  0  0  0  0  0  0
   42.7267   34.5925   33.7618 N   0  0  0  0  0  0  0  0  0  0  0  0
   43.4927   36.7498   34.5953 N   0  0  0  0  0  0  0  0  0  0  0  0
   44.2255   38.7864   35.4112 N   0  0  0  0  0  0  0  0  0  0  0  0
   47.0577   32.8499   27.9984 H   0  0  0  0  0  0  0  0  0  0  0  0
   43.5837   37.5964   36.9972 H   0  0  0  0  0  0  0  0  0  0  0  0
   44.4659   35.3279   30.3847 H   0  0  0  0  0  0  0  0  0  0  0  0
   43.2252   33.0736   26.0510 H   0  0  0  0  0  0  0  0  0  0  0  0
   42.1024   33.0265   28.2626 H   0  0  0  0  0  0  0  0  0  0  0  0
   45.0929   37.6601   31.2647 H   0  0  0  0  0  0  0  0  0  0  0  0
   42.7396   34.6470   35.8872 H   0  0  0  0  0  0  0  0  0  0  0  0
   41.1557   34.8670   35.1423 H   0  0  0  0  0  0  0  0  0  0  0  0
   41.8943   33.2689   35.2531 H   0  0  0  0  0  0  0  0  0  0  0  0
   44.7410   39.6346   35.2177 H   0  0  0  0  0  0  0  0  0  0  0  0
   45.8174   32.9944   25.6874 F   0  0  0  0  0  0  0  0  0  0  0  0
   44.3850   39.1179   37.4701 H   0  0  0  0  0  0  0  0  0  0  0  0
   42.7271   39.1511   36.8241 H   0  0  0  0  0  0  0  0  0  0  0  0
  1  3  1  0  0  0  0
  1  8  2  0  0  0  0
  1 23  1  0  0  0  0
  2 13  1  0  0  0  0
  2 19  2  0  0  0  0
  2 20  1  0  0  0  0
  3 14  2  0  0  0  0
  3 16  1  0  0  0  0
  4 18  1  0  0  0  0
  4 21  2  0  0  0  0
  4 22  1  0  0  0  0
  5 22  1  0  0  0  0
  5 24  1  0  0  0  0
  5 34  1  0  0  0  0
  5 35  1  0  0  0  0
  6  7  1  0  0  0  0
  6 11  2  0  0  0  0
  6 12  1  0  0  0  0
  7 13  2  0  0  0  0
  7 25  1  0  0  0  0
  8  9  1  0  0  0  0
  8 33  1  0  0  0  0
  9 10  2  0  0  0  0
  9 26  1  0  0  0  0
 10 14  1  0  0  0  0
 10 27  1  0  0  0  0
 11 20  1  0  0  0  0
 11 21  1  0  0  0  0
 12 18  2  0  0  0  0
 12 28  1  0  0  0  0
 13 17  1  0  0  0  0
 14 17  1  0  0  0  0
 15 20  1  0  0  0  0
 15 29  1  0  0  0  0
 15 30  1  0  0  0  0
 15 31  1  0  0  0  0
 22 32  1  0  0  0  0
M  END
>  <r_user_dG.exp>
-8.973000

$$$$
p38a_3fln
  PyMOL2.3          3D                             0

 46 49  0  0  0  0  0  0  0  0999 V2000
   42.3250   39.3307   36.8840 C   0  0  0  0  0  0  0  0  0  0  0  0
   41.8162   39.2582   38.3328 C   0  0  0  0  0  0  0  0  0  0  0  0
   44.0213   39.1916   39.2074 C   0  0  0  0  0  0  0  0  0  0  0  0
   44.6441   39.2671   37.8046 C   0  0  0  0  0  0  0  0  0  0  0  0
   45.9822   32.8976   28.0582 C   0  0  0  0  0  0  0  0  0  0  0  0
   42.7619   39.8553   39.2125 O   0  0  0  0  0  0  0  0  0  0  0  0
   42.5879   33.6758   32.7594 C   0  0  0  0  0  0  0  0  0  0  0  0
   45.3477   32.9138   29.3154 C   0  0  0  0  0  0  0  0  0  0  0  0
   44.1386   37.8930   34.3650 C   0  0  0  0  0  0  0  0  0  0  0  0
   43.6961   38.6555   36.7633 C   0  0  0  0  0  0  0  0  0  0  0  0
   43.9947   36.1282   32.3469 C   0  0  0  0  0  0  0  0  0  0  0  0
   43.9375   35.1132   31.3003 C   0  0  0  0  0  0  0  0  0  0  0  0
   45.2179   32.9711   26.8778 C   0  0  0  0  0  0  0  0  0  0  0  0
   43.8157   33.0295   26.9542 C   0  0  0  0  0  0  0  0  0  0  0  0
   43.1811   33.0201   28.2087 C   0  0  0  0  0  0  0  0  0  0  0  0
   43.4063   35.8418   33.5968 C   0  0  0  0  0  0  0  0  0  0  0  0
   44.6266   37.3796   32.1963 C   0  0  0  0  0  0  0  0  0  0  0  0
   43.3024   33.9386   31.5063 C   0  0  0  0  0  0  0  0  0  0  0  0
   43.9395   32.9775   29.3940 C   0  0  0  0  0  0  0  0  0  0  0  0
   42.0985   34.3242   35.0664 C   0  0  0  0  0  0  0  0  0  0  0  0
   46.0916   32.8783   30.4469 F   0  0  0  0  0  0  0  0  0  0  0  0
   45.8262   32.9948   25.6698 F   0  0  0  0  0  0  0  0  0  0  0  0
   43.2835   32.9028   30.5961 O   0  0  0  0  0  0  0  0  0  0  0  0
   44.7061   38.2628   33.2160 N   0  0  0  0  0  0  0  0  0  0  0  0
   41.8876   32.6729   32.8931 O   0  0  0  0  0  0  0  0  0  0  0  0
   42.7267   34.5925   33.7618 N   0  0  0  0  0  0  0  0  0  0  0  0
   43.4927   36.7498   34.5953 N   0  0  0  0  0  0  0  0  0  0  0  0
   44.2255   38.7864   35.4112 N   0  0  0  0  0  0  0  0  0  0  0  0
   41.6055   38.8596   36.2130 H   0  0  0  0  0  0  0  0  0  0  0  0
   42.4075   40.3723   36.5759 H   0  0  0  0  0  0  0  0  0  0  0  0
   40.8743   39.7956   38.4266 H   0  0  0  0  0  0  0  0  0  0  0  0
   41.6283   38.2258   38.6308 H   0  0  0  0  0  0  0  0  0  0  0  0
   43.9028   38.1548   39.5267 H   0  0  0  0  0  0  0  0  0  0  0  0
   44.6753   39.6762   39.9328 H   0  0  0  0  0  0  0  0  0  0  0  0
   44.8374   40.3136   37.5701 H   0  0  0  0  0  0  0  0  0  0  0  0
   45.6055   38.7526   37.7923 H   0  0  0  0  0  0  0  0  0  0  0  0
   47.0577   32.8499   27.9984 H   0  0  0  0  0  0  0  0  0  0  0  0
   43.5837   37.5964   36.9972 H   0  0  0  0  0  0  0  0  0  0  0  0
   44.4659   35.3279   30.3847 H   0  0  0  0  0  0  0  0  0  0  0  0
   43.2264   33.0735   26.0530 H   0  0  0  0  0  0  0  0  0  0  0  0
   42.1069   33.0265   28.2624 H   0  0  0  0  0  0  0  0  0  0  0  0
   45.0929   37.6601   31.2647 H   0  0  0  0  0  0  0  0  0  0  0  0
   42.7396   34.6470   35.8872 H   0  0  0  0  0  0  0  0  0  0  0  0
   41.1557   34.8670   35.1423 H   0  0  0  0  0  0  0  0  0  0  0  0
   41.8943   33.2689   35.2531 H   0  0  0  0  0  0  0  0  0  0  0  0
   44.7410   39.6346   35.2177 H   0  0  0  0  0  0  0  0  0  0  0  0
  1  2  1  0  0  0  0
  1 10  1  0  0  0  0
  1 29  1  0  0  0  0
  1 30  1  0  0  0  0
  2  6  1  0  0  0  0
  2 31  1  0  0  0  0
  2 32  1  0  0  0  0
  3  4  1  0  0  0  0
  3  6  1  0  0  0  0
  3 33  1  0  0  0  0
  3 34  1  0  0  0  0
  4 10  1  0  0  0  0
  4 35  1  0  0  0  0
  4 36  1  0  0  0  0
  5  8  1  0  0  0  0
  5 13  2  0  0  0  0
  5 37  1  0  0  0  0
  7 18  1  0  0  0  0
  7 25  2  0  0  0  0
  7 26  1  0  0  0  0
  8 19  2  0  0  0  0
  8 21  1  0  0  0  0
  9 24  1  0  0  0  0
  9 27  2  0  0  0  0
  9 28  1  0  0  0  0
 10 28  1  0  0  0  0
 10 38  1  0  0  0  0
 11 12  1  0  0  0  0
 11 16  2  0  0  0  0
 11 17  1  0  0  0  0
 12 18  2  0  0  0  0
 12 39  1  0  0  0  0
 13 14  1  0  0  0  0
 13 22  1  0  0  0  0
 14 15  2  0  0  0  0
 14 40  1  0  0  0  0
 15 19  1  0  0  0  0
 15 41  1  0  0  0  0
 16 26  1  0  0  0  0
 16 27  1  0  0  0  0
 17 24  2  0  0  0  0
 17 42  1  0  0  0  0
 18 23  1  0  0  0  0
 19 23  1  0  0  0  0
 20 26  1  0  0  0  0
 20 43  1  0  0  0  0
 20 44  1  0  0  0  0
 20 45  1  0  0  0  0
 28 46  1  0  0  0  0
M  END
>  <r_user_dG.exp>
-10.881700

$$$$
p38a_2t
  PyMOL2.3          3D                             0

 47 50  0  0  0  0  0  0  0  0999 V2000
   45.9822   32.8976   28.0582 C   0  0  0  0  0  0  0  0  0  0  0  0
   42.5879   33.6758   32.7594 C   0  0  0  0  0  0  0  0  0  0  0  0
   45.3477   32.9138   29.3154 C   0  0  0  0  0  0  0  0  0  0  0  0
   44.1386   37.8930   34.3650 C   0  0  0  0  0  0  0  0  0  0  0  0
   43.9947   36.1282   32.3469 C   0  0  0  0  0  0  0  0  0  0  0  0
   43.9375   35.1132   31.3003 C   0  0  0  0  0  0  0  0  0  0  0  0
   45.2179   32.9711   26.8778 C   0  0  0  0  0  0  0  0  0  0  0  0
   43.8157   33.0295   26.9542 C   0  0  0  0  0  0  0  0  0  0  0  0
   43.1811   33.0201   28.2087 C   0  0  0  0  0  0  0  0  0  0  0  0
   43.4063   35.8418   33.5968 C   0  0  0  0  0  0  0  0  0  0  0  0
   44.6266   37.3796   32.1963 C   0  0  0  0  0  0  0  0  0  0  0  0
   43.3024   33.9386   31.5063 C   0  0  0  0  0  0  0  0  0  0  0  0
   43.9395   32.9775   29.3940 C   0  0  0  0  0  0  0  0  0  0  0  0
   46.0798   32.8787   30.4288 F   0  0  0  0  0  0  0  0  0  0  0  0
   43.2835   32.9028   30.5961 O   0  0  0  0  0  0  0  0  0  0  0  0
   44.7061   38.2628   33.2160 N   0  0  0  0  0  0  0  0  0  0  0  0
   41.8876   32.6729   32.8931 O   0  0  0  0  0  0  0  0  0  0  0  0
   42.7267   34.5925   33.7618 N   0  0  0  0  0  0  0  0  0  0  0  0
   43.4927   36.7498   34.5953 N   0  0  0  0  0  0  0  0  0  0  0  0
   44.2255   38.7864   35.4112 N   0  0  0  0  0  0  0  0  0  0  0  0
   47.0577   32.8499   27.9984 H   0  0  0  0  0  0  0  0  0  0  0  0
   44.4659   35.3279   30.3847 H   0  0  0  0  0  0  0  0  0  0  0  0
   43.2252   33.0736   26.0510 H   0  0  0  0  0  0  0  0  0  0  0  0
   42.1024   33.0265   28.2626 H   0  0  0  0  0  0  0  0  0  0  0  0
   45.0929   37.6601   31.2647 H   0  0  0  0  0  0  0  0  0  0  0  0
   44.7410   39.6346   35.2177 H   0  0  0  0  0  0  0  0  0  0  0  0
   45.8174   32.9944   25.6874 F   0  0  0  0  0  0  0  0  0  0  0  0
   43.5405   39.7718   39.0236 C   0  0  0  0  0  0  0  0  0  0  0  0
   44.0438   39.9079   37.5777 C   0  0  0  0  0  0  0  0  0  0  0  0
   43.7020   38.6546   36.7560 C   0  0  0  0  0  0  0  0  0  0  0  0
   44.2708   37.3900   37.4193 C   0  0  0  0  0  0  0  0  0  0  0  0
   43.7674   37.2538   38.8652 C   0  0  0  0  0  0  0  0  0  0  0  0
   44.1093   38.5071   39.6870 O   0  0  0  0  0  0  0  0  0  0  0  0
   42.4250   39.7228   39.0258 H   0  0  0  0  0  0  0  0  0  0  0  0
   43.8283   40.6752   39.6147 H   0  0  0  0  0  0  0  0  0  0  0  0
   45.1503   40.0591   37.5820 H   0  0  0  0  0  0  0  0  0  0  0  0
   43.5933   40.8122   37.1002 H   0  0  0  0  0  0  0  0  0  0  0  0
   42.5930   38.5604   36.6659 H   0  0  0  0  0  0  0  0  0  0  0  0
   43.9832   36.4866   36.8282 H   0  0  0  0  0  0  0  0  0  0  0  0
   45.3865   37.4390   37.4171 H   0  0  0  0  0  0  0  0  0  0  0  0
   42.6612   37.1026   38.8609 H   0  0  0  0  0  0  0  0  0  0  0  0
   44.2180   36.3496   39.3427 H   0  0  0  0  0  0  0  0  0  0  0  0
   42.1086   34.3285   35.0456 C   0  0  0  0  0  0  0  0  0  0  0  0
   42.3214   35.1768   35.7435 H   0  0  0  0  0  0  0  0  0  0  0  0
   41.0026   34.2237   34.9124 H   0  0  0  0  0  0  0  0  0  0  0  0
   42.6754   33.0363   35.6265 C   0  0  0  0  0  0  0  0  0  0  0  0
   42.3952   31.9216   34.7085 N   0  0  0  0  0  0  0  0  0  0  0  0
  1  3  1  0  0  0  0
  1  7  2  0  0  0  0
  1 21  1  0  0  0  0
  2 12  1  0  0  0  0
  2 17  2  0  0  0  0
  2 18  1  0  0  0  0
  3 13  2  0  0  0  0
  3 14  1  0  0  0  0
  4 16  1  0  0  0  0
  4 19  2  0  0  0  0
  4 20  1  0  0  0  0
  5  6  1  0  0  0  0
  5 10  2  0  0  0  0
  5 11  1  0  0  0  0
  6 12  2  0  0  0  0
  6 22  1  0  0  0  0
  7  8  1  0  0  0  0
  7 27  1  0  0  0  0
  8  9  2  0  0  0  0
  8 23  1  0  0  0  0
  9 13  1  0  0  0  0
  9 24  1  0  0  0  0
 10 18  1  0  0  0  0
 10 19  1  0  0  0  0
 11 16  2  0  0  0  0
 11 25  1  0  0  0  0
 12 15  1  0  0  0  0
 13 15  1  0  0  0  0
 18 43  1  0  0  0  0
 20 26  1  0  0  0  0
 20 30  1  0  0  0  0
 28 29  1  0  0  0  0
 28 33  1  0  0  0  0
 28 34  1  0  0  0  0
 28 35  1  0  0  0  0
 29 30  1  0  0  0  0
 29 36  1  0  0  0  0
 29 37  1  0  0  0  0
 30 31  1  0  0  0  0
 30 38  1  0  0  0  0
 31 32  1  0  0  0  0
 31 39  1  0  0  0  0
 31 40  1  0  0  0  0
 32 33  1  0  0  0  0
 32 41  1  0  0  0  0
 32 42  1  0  0  0  0
 43 44  1  0  0  0  0
 43 45  1  0  0  0  0
 43 46  1  0  0  0  0
 46 47  3  0  0  0  0
M  END
>  <r_user_dG.exp>
-11.854000

$$$$
p38a_2r
  PyMOL2.3          3D                             0

 56 59  0  0  0  0  0  0  0  0999 V2000
   45.9822   32.8976   28.0582 C   0  0  0  0  0  0  0  0  0  0  0  0
   42.5879   33.6758   32.7594 C   0  0  0  0  0  0  0  0  0  0  0  0
   45.3477   32.9138   29.3154 C   0  0  0  0  0  0  0  0  0  0  0  0
   44.1386   37.8930   34.3650 C   0  0  0  0  0  0  0  0  0  0  0  0
   43.9947   36.1282   32.3469 C   0  0  0  0  0  0  0  0  0  0  0  0
   43.9375   35.1132   31.3003 C   0  0  0  0  0  0  0  0  0  0  0  0
   45.2179   32.9711   26.8778 C   0  0  0  0  0  0  0  0  0  0  0  0
   43.8157   33.0295   26.9542 C   0  0  0  0  0  0  0  0  0  0  0  0
   43.1811   33.0201   28.2087 C   0  0  0  0  0  0  0  0  0  0  0  0
   43.4063   35.8418   33.5968 C   0  0  0  0  0  0  0  0  0  0  0  0
   44.6266   37.3796   32.1963 C   0  0  0  0  0  0  0  0  0  0  0  0
   43.3024   33.9386   31.5063 C   0  0  0  0  0  0  0  0  0  0  0  0
   43.9395   32.9775   29.3940 C   0  0  0  0  0  0  0  0  0  0  0  0
   46.0798   32.8787   30.4288 F   0  0  0  0  0  0  0  0  0  0  0  0
   43.2835   32.9028   30.5961 O   0  0  0  0  0  0  0  0  0  0  0  0
   44.7061   38.2628   33.2160 N   0  0  0  0  0  0  0  0  0  0  0  0
   41.8876   32.6729   32.8931 O   0  0  0  0  0  0  0  0  0  0  0  0
   42.7267   34.5925   33.7618 N   0  0  0  0  0  0  0  0  0  0  0  0
   43.4927   36.7498   34.5953 N   0  0  0  0  0  0  0  0  0  0  0  0
   44.2255   38.7864   35.4112 N   0  0  0  0  0  0  0  0  0  0  0  0
   47.0577   32.8499   27.9984 H   0  0  0  0  0  0  0  0  0  0  0  0
   44.4659   35.3279   30.3847 H   0  0  0  0  0  0  0  0  0  0  0  0
   43.2252   33.0736   26.0510 H   0  0  0  0  0  0  0  0  0  0  0  0
   42.1024   33.0265   28.2626 H   0  0  0  0  0  0  0  0  0  0  0  0
   45.0929   37.6601   31.2647 H   0  0  0  0  0  0  0  0  0  0  0  0
   44.7410   39.6346   35.2177 H   0  0  0  0  0  0  0  0  0  0  0  0
   45.8174   32.9944   25.6874 F   0  0  0  0  0  0  0  0  0  0  0  0
   43.5405   39.7718   39.0236 C   0  0  0  0  0  0  0  0  0  0  0  0
   44.0438   39.9079   37.5777 C   0  0  0  0  0  0  0  0  0  0  0  0
   43.7020   38.6546   36.7560 C   0  0  0  0  0  0  0  0  0  0  0  0
   44.2708   37.3900   37.4193 C   0  0  0  0  0  0  0  0  0  0  0  0
   43.7674   37.2538   38.8652 C   0  0  0  0  0  0  0  0  0  0  0  0
   44.1093   38.5071   39.6870 O   0  0  0  0  0  0  0  0  0  0  0  0
   42.4250   39.7228   39.0258 H   0  0  0  0  0  0  0  0  0  0  0  0
   43.8283   40.6752   39.6147 H   0  0  0  0  0  0  0  0  0  0  0  0
   45.1503   40.0591   37.5820 H   0  0  0  0  0  0  0  0  0  0  0  0
   43.5933   40.8122   37.1002 H   0  0  0  0  0  0  0  0  0  0  0  0
   42.5930   38.5604   36.6659 H   0  0  0  0  0  0  0  0  0  0  0  0
   43.9832   36.4866   36.8282 H   0  0  0  0  0  0  0  0  0  0  0  0
   45.3865   37.4390   37.4171 H   0  0  0  0  0  0  0  0  0  0  0  0
   42.6612   37.1026   38.8609 H   0  0  0  0  0  0  0  0  0  0  0  0
   44.2180   36.3496   39.3427 H   0  0  0  0  0  0  0  0  0  0  0  0
   42.1086   34.3285   35.0456 C   0  0  0  0  0  0  0  0  0  0  0  0
   42.3214   35.1768   35.7435 H   0  0  0  0  0  0  0  0  0  0  0  0
   41.0026   34.2237   34.9124 H   0  0  0  0  0  0  0  0  0  0  0  0
   42.6757   33.0367   35.6271 C   0  0  0  0  0  0  0  0  0  0  0  0
   42.4075   31.9678   34.7476 O   0  0  0  0  0  0  0  0  0  0  0  0
   41.4545   31.9211   34.6684 H   0  0  0  0  0  0  0  0  0  0  0  0
   42.0250   32.7594   36.9793 C   0  0  0  0  0  0  0  0  0  0  0  0
   40.9189   32.6544   36.8464 H   0  0  0  0  0  0  0  0  0  0  0  0
   42.4408   31.8124   37.4062 H   0  0  0  0  0  0  0  0  0  0  0  0
   42.2379   33.6080   37.6768 H   0  0  0  0  0  0  0  0  0  0  0  0
   44.1841   33.1798   35.8087 C   0  0  0  0  0  0  0  0  0  0  0  0
   44.5998   32.2326   36.2351 H   0  0  0  0  0  0  0  0  0  0  0  0
   44.6614   33.3836   34.8175 H   0  0  0  0  0  0  0  0  0  0  0  0
   44.3969   34.0280   36.5067 H   0  0  0  0  0  0  0  0  0  0  0  0
  1  3  1  0  0  0  0
  1  7  2  0  0  0  0
  1 21  1  0  0  0  0
  2 12  1  0  0  0  0
  2 17  2  0  0  0  0
  2 18  1  0  0  0  0
  3 13  2  0  0  0  0
  3 14  1  0  0  0  0
  4 16  1  0  0  0  0
  4 19  2  0  0  0  0
  4 20  1  0  0  0  0
  5  6  1  0  0  0  0
  5 10  2  0  0  0  0
  5 11  1  0  0  0  0
  6 12  2  0  0  0  0
  6 22  1  0  0  0  0
  7  8  1  0  0  0  0
  7 27  1  0  0  0  0
  8  9  2  0  0  0  0
  8 23  1  0  0  0  0
  9 13  1  0  0  0  0
  9 24  1  0  0  0  0
 10 18  1  0  0  0  0
 10 19  1  0  0  0  0
 11 16  2  0  0  0  0
 11 25  1  0  0  0  0
 12 15  1  0  0  0  0
 13 15  1  0  0  0  0
 18 43  1  0  0  0  0
 20 26  1  0  0  0  0
 20 30  1  0  0  0  0
 28 29  1  0  0  0  0
 28 33  1  0  0  0  0
 28 34  1  0  0  0  0
 28 35  1  0  0  0  0
 29 30  1  0  0  0  0
 29 36  1  0  0  0  0
 29 37  1  0  0  0  0
 30 31  1  0  0  0  0
 30 38  1  0  0  0  0
 31 32  1  0  0  0  0
 31 39  1  0  0  0  0
 31 40  1  0  0  0  0
 32 33  1  0  0  0  0
 32 41  1  0  0  0  0
 32 42  1  0  0  0  0
 43 44  1  0  0  0  0
 43 45  1  0  0  0  0
 43 46  1  0  0  0  0
 46 47  1  0  0  0  0
 46 49  1  0  0  0  0
 46 53  1  0  0  0  0
 47 48  1  0  0  0  0
 49 50  1  0  0  0  0
 49 51  1  0  0  0  0
 49 52  1  0  0  0  0
 53 54  1  0  0  0  0
 53 55  1  0  0  0  0
 53 56  1  0  0  0  0
M  END
>  <r_user_dG.exp>
-10.793000

$$$$
p38a_3fly
  PyMOL2.3          3D                             0

 41 43  0  0  0  0  0  0  0  0999 V2000
   44.6351   37.2685   32.1883 C   0  0  0  0  0  0  0  0  0  0  0  0
   43.1582   35.8857   33.4990 C   0  0  0  0  0  0  0  0  0  0  0  0
   44.6382   38.2061   33.1604 N   0  0  0  0  0  0  0  0  0  0  0  0
   43.9106   36.0658   32.3217 C   0  0  0  0  0  0  0  0  0  0  0  0
   43.9307   34.9957   31.3349 C   0  0  0  0  0  0  0  0  0  0  0  0
   43.2355   33.8524   31.5328 C   0  0  0  0  0  0  0  0  0  0  0  0
   42.3910   33.6790   32.7225 C   0  0  0  0  0  0  0  0  0  0  0  0
   43.9052   37.9390   34.2416 C   0  0  0  0  0  0  0  0  0  0  0  0
   43.1766   38.8821   36.4982 C   0  0  0  0  0  0  0  0  0  0  0  0
   44.0032   39.5211   37.6209 C   0  0  0  0  0  0  0  0  0  0  0  0
   41.8254   39.5840   36.3226 C   0  0  0  0  0  0  0  0  0  0  0  0
   43.9464   32.8323   29.4778 C   0  0  0  0  0  0  0  0  0  0  0  0
   43.1992   32.8925   28.2870 C   0  0  0  0  0  0  0  0  0  0  0  0
   43.8474   32.8968   27.0383 C   0  0  0  0  0  0  0  0  0  0  0  0
   45.2494   32.8117   26.9770 C   0  0  0  0  0  0  0  0  0  0  0  0
   46.0000   32.7032   28.1631 C   0  0  0  0  0  0  0  0  0  0  0  0
   45.3525   32.7256   29.4135 C   0  0  0  0  0  0  0  0  0  0  0  0
   45.8748   32.8525   25.7785 F   0  0  0  0  0  0  0  0  0  0  0  0
   46.0806   32.6477   30.5516 F   0  0  0  0  0  0  0  0  0  0  0  0
   43.2807   32.7754   30.6771 O   0  0  0  0  0  0  0  0  0  0  0  0
   41.6859   32.6800   32.8613 O   0  0  0  0  0  0  0  0  0  0  0  0
   42.4168   34.6710   33.6590 N   0  0  0  0  0  0  0  0  0  0  0  0
   41.6397   34.5173   34.9002 C   0  0  0  0  0  0  0  0  0  0  0  0
   43.1652   36.8489   34.4479 N   0  0  0  0  0  0  0  0  0  0  0  0
   43.9111   38.8890   35.2413 N   0  0  0  0  0  0  0  0  0  0  0  0
   45.2333   37.4618   31.3126 H   0  0  0  0  0  0  0  0  0  0  0  0
   44.5587   35.1439   30.4708 H   0  0  0  0  0  0  0  0  0  0  0  0
   42.9898   37.8474   36.7860 H   0  0  0  0  0  0  0  0  0  0  0  0
   44.9664   39.0235   37.7357 H   0  0  0  0  0  0  0  0  0  0  0  0
   44.1908   40.5755   37.4264 H   0  0  0  0  0  0  0  0  0  0  0  0
   43.4810   39.4529   38.5756 H   0  0  0  0  0  0  0  0  0  0  0  0
   41.2073   39.0728   35.5839 H   0  0  0  0  0  0  0  0  0  0  0  0
   41.2693   39.6011   37.2598 H   0  0  0  0  0  0  0  0  0  0  0  0
   41.9590   40.6117   35.9854 H   0  0  0  0  0  0  0  0  0  0  0  0
   42.1232   32.9386   28.3339 H   0  0  0  0  0  0  0  0  0  0  0  0
   43.2678   32.9710   26.1312 H   0  0  0  0  0  0  0  0  0  0  0  0
   47.0748   32.6321   28.1142 H   0  0  0  0  0  0  0  0  0  0  0  0
   41.2544   33.5128   35.0799 H   0  0  0  0  0  0  0  0  0  0  0  0
   42.2594   34.7543   35.7650 H   0  0  0  0  0  0  0  0  0  0  0  0
   40.7901   35.2014   34.8968 H   0  0  0  0  0  0  0  0  0  0  0  0
   44.5162   39.6834   35.0860 H   0  0  0  0  0  0  0  0  0  0  0  0
  1  3  1  0  0  0  0
  1  4  2  0  0  0  0
  1 26  1  0  0  0  0
  2  4  1  0  0  0  0
  2 22  1  0  0  0  0
  2 24  2  0  0  0  0
  3  8  2  0  0  0  0
  4  5  1  0  0  0  0
  5  6  2  0  0  0  0
  5 27  1  0  0  0  0
  6  7  1  0  0  0  0
  6 20  1  0  0  0  0
  7 21  2  0  0  0  0
  7 22  1  0  0  0  0
  8 24  1  0  0  0  0
  8 25  1  0  0  0  0
  9 10  1  0  0  0  0
  9 11  1  0  0  0  0
  9 25  1  0  0  0  0
  9 28  1  0  0  0  0
 10 29  1  0  0  0  0
 10 30  1  0  0  0  0
 10 31  1  0  0  0  0
 11 32  1  0  0  0  0
 11 33  1  0  0  0  0
 11 34  1  0  0  0  0
 12 13  1  0  0  0  0
 12 17  2  0  0  0  0
 12 20  1  0  0  0  0
 13 14  2  0  0  0  0
 13 35  1  0  0  0  0
 14 15  1  0  0  0  0
 14 36  1  0  0  0  0
 15 16  2  0  0  0  0
 15 18  1  0  0  0  0
 16 17  1  0  0  0  0
 16 37  1  0  0  0  0
 17 19  1  0  0  0  0
 22 23  1  0  0  0  0
 23 38  1  0  0  0  0
 23 39  1  0  0  0  0
 23 40  1  0  0  0  0
 25 41  1  0  0  0  0
M  END
>  <i_m_stars>
2

>  <r_user_dG.exp>
-11.423000

$$$$
p38a_2u
  PyMOL2.3          3D                             0

 64 68  0  0  0  0  0  0  0  0999 V2000
   45.9822   32.8976   28.0582 C   0  0  0  0  0  0  0  0  0  0  0  0
   42.5879   33.6758   32.7594 C   0  0  0  0  0  0  0  0  0  0  0  0
   45.3477   32.9138   29.3154 C   0  0  0  0  0  0  0  0  0  0  0  0
   44.1386   37.8930   34.3650 C   0  0  0  0  0  0  0  0  0  0  0  0
   43.9947   36.1282   32.3469 C   0  0  0  0  0  0  0  0  0  0  0  0
   43.9375   35.1132   31.3003 C   0  0  0  0  0  0  0  0  0  0  0  0
   45.2179   32.9711   26.8778 C   0  0  0  0  0  0  0  0  0  0  0  0
   43.8157   33.0295   26.9542 C   0  0  0  0  0  0  0  0  0  0  0  0
   43.1811   33.0201   28.2087 C   0  0  0  0  0  0  0  0  0  0  0  0
   43.4063   35.8418   33.5968 C   0  0  0  0  0  0  0  0  0  0  0  0
   44.6266   37.3796   32.1963 C   0  0  0  0  0  0  0  0  0  0  0  0
   43.3024   33.9386   31.5063 C   0  0  0  0  0  0  0  0  0  0  0  0
   43.9395   32.9775   29.3940 C   0  0  0  0  0  0  0  0  0  0  0  0
   46.0798   32.8787   30.4288 F   0  0  0  0  0  0  0  0  0  0  0  0
   43.2835   32.9028   30.5961 O   0  0  0  0  0  0  0  0  0  0  0  0
   44.7061   38.2628   33.2160 N   0  0  0  0  0  0  0  0  0  0  0  0
   41.8876   32.6729   32.8931 O   0  0  0  0  0  0  0  0  0  0  0  0
   42.7267   34.5925   33.7618 N   0  0  0  0  0  0  0  0  0  0  0  0
   43.4927   36.7498   34.5953 N   0  0  0  0  0  0  0  0  0  0  0  0
   44.2255   38.7864   35.4112 N   0  0  0  0  0  0  0  0  0  0  0  0
   47.0577   32.8499   27.9984 H   0  0  0  0  0  0  0  0  0  0  0  0
   44.4659   35.3279   30.3847 H   0  0  0  0  0  0  0  0  0  0  0  0
   43.2252   33.0736   26.0510 H   0  0  0  0  0  0  0  0  0  0  0  0
   42.1024   33.0265   28.2626 H   0  0  0  0  0  0  0  0  0  0  0  0
   45.0929   37.6601   31.2647 H   0  0  0  0  0  0  0  0  0  0  0  0
   44.7410   39.6346   35.2177 H   0  0  0  0  0  0  0  0  0  0  0  0
   45.8174   32.9944   25.6874 F   0  0  0  0  0  0  0  0  0  0  0  0
   43.5405   39.7718   39.0236 C   0  0  0  0  0  0  0  0  0  0  0  0
   44.0438   39.9079   37.5777 C   0  0  0  0  0  0  0  0  0  0  0  0
   43.7020   38.6546   36.7560 C   0  0  0  0  0  0  0  0  0  0  0  0
   44.2708   37.3900   37.4193 C   0  0  0  0  0  0  0  0  0  0  0  0
   43.7674   37.2538   38.8652 C   0  0  0  0  0  0  0  0  0  0  0  0
   44.1093   38.5071   39.6870 O   0  0  0  0  0  0  0  0  0  0  0  0
   42.4250   39.7228   39.0258 H   0  0  0  0  0  0  0  0  0  0  0  0
   43.8283   40.6752   39.6147 H   0  0  0  0  0  0  0  0  0  0  0  0
   45.1503   40.0591   37.5820 H   0  0  0  0  0  0  0  0  0  0  0  0
   43.5933   40.8122   37.1002 H   0  0  0  0  0  0  0  0  0  0  0  0
   42.5930   38.5604   36.6659 H   0  0  0  0  0  0  0  0  0  0  0  0
   43.9832   36.4866   36.8282 H   0  0  0  0  0  0  0  0  0  0  0  0
   45.3865   37.4390   37.4171 H   0  0  0  0  0  0  0  0  0  0  0  0
   42.6612   37.1026   38.8609 H   0  0  0  0  0  0  0  0  0  0  0  0
   44.2180   36.3496   39.3427 H   0  0  0  0  0  0  0  0  0  0  0  0
   41.9216   35.2161   37.4296 C   0  0  0  0  0  0  0  0  0  0  0  0
   42.4595   35.4999   36.0178 C   0  0  0  0  0  0  0  0  0  0  0  0
   42.1714   34.3223   35.0726 C   0  0  0  0  0  0  0  0  0  0  0  0
   42.7546   33.0140   35.6304 C   0  0  0  0  0  0  0  0  0  0  0  0
   42.2168   32.7303   37.0422 C   0  0  0  0  0  0  0  0  0  0  0  0
   40.8080   35.1418   37.3951 H   0  0  0  0  0  0  0  0  0  0  0  0
   42.1706   36.0661   38.1108 H   0  0  0  0  0  0  0  0  0  0  0  0
   43.5612   35.6752   36.0681 H   0  0  0  0  0  0  0  0  0  0  0  0
   41.9988   36.4346   35.6145 H   0  0  0  0  0  0  0  0  0  0  0  0
   41.0680   34.2117   34.9424 H   0  0  0  0  0  0  0  0  0  0  0  0
   42.5057   32.1641   34.9492 H   0  0  0  0  0  0  0  0  0  0  0  0
   43.8682   33.0885   35.6650 H   0  0  0  0  0  0  0  0  0  0  0  0
   41.1152   32.5549   36.9920 H   0  0  0  0  0  0  0  0  0  0  0  0
   42.6774   31.7956   37.4455 H   0  0  0  0  0  0  0  0  0  0  0  0
   42.4697   33.9131   37.9269 N   0  0  0  0  0  0  0  0  0  0  0  0
   43.2196   33.8004   39.2210 S   0  0  0  0  0  0  0  0  0  0  0  0
   43.6145   32.3840   39.4043 O   0  0  0  0  0  0  0  0  0  0  0  0
   42.3818   34.3836   40.2951 O   0  0  0  0  0  0  0  0  0  0  0  0
   44.4677   34.6237   39.1020 C   0  0  0  0  0  0  0  0  0  0  0  0
   44.1931   35.6994   38.9626 H   0  0  0  0  0  0  0  0  0  0  0  0
   45.0783   34.5123   40.0330 H   0  0  0  0  0  0  0  0  0  0  0  0
   45.0628   34.2736   38.2215 H   0  0  0  0  0  0  0  0  0  0  0  0
  1  3  1  0  0  0  0
  1  7  2  0  0  0  0
  1 21  1  0  0  0  0
  2 12  1  0  0  0  0
  2 17  2  0  0  0  0
  2 18  1  0  0  0  0
  3 13  2  0  0  0  0
  3 14  1  0  0  0  0
  4 16  1  0  0  0  0
  4 19  2  0  0  0  0
  4 20  1  0  0  0  0
  5  6  1  0  0  0  0
  5 10  2  0  0  0  0
  5 11  1  0  0  0  0
  6 12  2  0  0  0  0
  6 22  1  0  0  0  0
  7  8  1  0  0  0  0
  7 27  1  0  0  0  0
  8  9  2  0  0  0  0
  8 23  1  0  0  0  0
  9 13  1  0  0  0  0
  9 24  1  0  0  0  0
 10 18  1  0  0  0  0
 10 19  1  0  0  0  0
 11 16  2  0  0  0  0
 11 25  1  0  0  0  0
 12 15  1  0  0  0  0
 13 15  1  0  0  0  0
 18 45  1  0  0  0  0
 20 26  1  0  0  0  0
 20 30  1  0  0  0  0
 28 29  1  0  0  0  0
 28 33  1  0  0  0  0
 28 34  1  0  0  0  0
 28 35  1  0  0  0  0
 29 30  1  0  0  0  0
 29 36  1  0  0  0  0
 29 37  1  0  0  0  0
 30 31  1  0  0  0  0
 30 38  1  0  0  0  0
 31 32  1  0  0  0  0
 31 39  1  0  0  0  0
 31 40  1  0  0  0  0
 32 33  1  0  0  0  0
 32 41  1  0  0  0  0
 32 42  1  0  0  0  0
 43 44  1  0  0  0  0
 43 48  1  0  0  0  0
 43 49  1  0  0  0  0
 43 57  1  0  0  0  0
 44 45  1  0  0  0  0
 44 50  1  0  0  0  0
 44 51  1  0  0  0  0
 45 46  1  0  0  0  0
 45 52  1  0  0  0  0
 46 47  1  0  0  0  0
 46 53  1  0  0  0  0
 46 54  1  0  0  0  0
 47 55  1  0  0  0  0
 47 56  1  0  0  0  0
 47 57  1  0  0  0  0
 57 58  1  0  0  0  0
 58 59  2  0  0  0  0
 58 60  2  0  0  0  0
 58 61  1  0  0  0  0
 61 62  1  0  0  0  0
 61 63  1  0  0  0  0
 61 64  1  0  0  0  0
M  END
>  <r_user_dG.exp>
-12.264000

$$$$
p38a_2l
  PyMOL2.3          3D                             0

 49 52  0  0  0  0  0  0  0  0999 V2000
   45.9822   32.8976   28.0582 C   0  0  0  0  0  0  0  0  0  0  0  0
   42.5879   33.6758   32.7594 C   0  0  0  0  0  0  0  0  0  0  0  0
   45.3477   32.9138   29.3154 C   0  0  0  0  0  0  0  0  0  0  0  0
   44.1386   37.8930   34.3650 C   0  0  0  0  0  0  0  0  0  0  0  0
   43.9947   36.1282   32.3469 C   0  0  0  0  0  0  0  0  0  0  0  0
   43.9375   35.1132   31.3003 C   0  0  0  0  0  0  0  0  0  0  0  0
   45.2179   32.9711   26.8778 C   0  0  0  0  0  0  0  0  0  0  0  0
   43.8157   33.0295   26.9542 C   0  0  0  0  0  0  0  0  0  0  0  0
   43.1811   33.0201   28.2087 C   0  0  0  0  0  0  0  0  0  0  0  0
   43.4063   35.8418   33.5968 C   0  0  0  0  0  0  0  0  0  0  0  0
   44.6266   37.3796   32.1963 C   0  0  0  0  0  0  0  0  0  0  0  0
   43.3024   33.9386   31.5063 C   0  0  0  0  0  0  0  0  0  0  0  0
   43.9395   32.9775   29.3940 C   0  0  0  0  0  0  0  0  0  0  0  0
   46.0798   32.8787   30.4288 F   0  0  0  0  0  0  0  0  0  0  0  0
   43.2835   32.9028   30.5961 O   0  0  0  0  0  0  0  0  0  0  0  0
   44.7061   38.2628   33.2160 N   0  0  0  0  0  0  0  0  0  0  0  0
   41.8876   32.6729   32.8931 O   0  0  0  0  0  0  0  0  0  0  0  0
   42.7267   34.5925   33.7618 N   0  0  0  0  0  0  0  0  0  0  0  0
   43.4927   36.7498   34.5953 N   0  0  0  0  0  0  0  0  0  0  0  0
   44.2255   38.7864   35.4112 N   0  0  0  0  0  0  0  0  0  0  0  0
   47.0577   32.8499   27.9984 H   0  0  0  0  0  0  0  0  0  0  0  0
   44.4659   35.3279   30.3847 H   0  0  0  0  0  0  0  0  0  0  0  0
   43.2252   33.0736   26.0510 H   0  0  0  0  0  0  0  0  0  0  0  0
   42.1024   33.0265   28.2626 H   0  0  0  0  0  0  0  0  0  0  0  0
   45.0929   37.6601   31.2647 H   0  0  0  0  0  0  0  0  0  0  0  0
   44.7410   39.6346   35.2177 H   0  0  0  0  0  0  0  0  0  0  0  0
   45.8174   32.9944   25.6874 F   0  0  0  0  0  0  0  0  0  0  0  0
   43.5405   39.7718   39.0236 C   0  0  0  0  0  0  0  0  0  0  0  0
   44.0438   39.9079   37.5777 C   0  0  0  0  0  0  0  0  0  0  0  0
   43.7020   38.6546   36.7560 C   0  0  0  0  0  0  0  0  0  0  0  0
   44.2708   37.3900   37.4193 C   0  0  0  0  0  0  0  0  0  0  0  0
   43.7674   37.2538   38.8652 C   0  0  0  0  0  0  0  0  0  0  0  0
   44.1093   38.5071   39.6870 O   0  0  0  0  0  0  0  0  0  0  0  0
   42.4250   39.7228   39.0258 H   0  0  0  0  0  0  0  0  0  0  0  0
   43.8283   40.6752   39.6147 H   0  0  0  0  0  0  0  0  0  0  0  0
   45.1503   40.0591   37.5820 H   0  0  0  0  0  0  0  0  0  0  0  0
   43.5933   40.8122   37.1002 H   0  0  0  0  0  0  0  0  0  0  0  0
   42.5930   38.5604   36.6659 H   0  0  0  0  0  0  0  0  0  0  0  0
   43.9832   36.4866   36.8282 H   0  0  0  0  0  0  0  0  0  0  0  0
   45.3865   37.4390   37.4171 H   0  0  0  0  0  0  0  0  0  0  0  0
   42.6612   37.1026   38.8609 H   0  0  0  0  0  0  0  0  0  0  0  0
   44.2180   36.3496   39.3427 H   0  0  0  0  0  0  0  0  0  0  0  0
   42.1086   34.3285   35.0456 C   0  0  0  0  0  0  0  0  0  0  0  0
   42.3214   35.1768   35.7435 H   0  0  0  0  0  0  0  0  0  0  0  0
   41.0026   34.2237   34.9124 H   0  0  0  0  0  0  0  0  0  0  0  0
   42.6757   33.0367   35.6271 C   0  0  0  0  0  0  0  0  0  0  0  0
   42.4628   32.1884   34.9292 H   0  0  0  0  0  0  0  0  0  0  0  0
   43.7817   33.1415   35.7603 H   0  0  0  0  0  0  0  0  0  0  0  0
   42.1984   32.8329   36.6184 H   0  0  0  0  0  0  0  0  0  0  0  0
  1  3  1  0  0  0  0
  1  7  2  0  0  0  0
  1 21  1  0  0  0  0
  2 12  1  0  0  0  0
  2 17  2  0  0  0  0
  2 18  1  0  0  0  0
  3 13  2  0  0  0  0
  3 14  1  0  0  0  0
  4 16  1  0  0  0  0
  4 19  2  0  0  0  0
  4 20  1  0  0  0  0
  5  6  1  0  0  0  0
  5 10  2  0  0  0  0
  5 11  1  0  0  0  0
  6 12  2  0  0  0  0
  6 22  1  0  0  0  0
  7  8  1  0  0  0  0
  7 27  1  0  0  0  0
  8  9  2  0  0  0  0
  8 23  1  0  0  0  0
  9 13  1  0  0  0  0
  9 24  1  0  0  0  0
 10 18  1  0  0  0  0
 10 19  1  0  0  0  0
 11 16  2  0  0  0  0
 11 25  1  0  0  0  0
 12 15  1  0  0  0  0
 13 15  1  0  0  0  0
 18 43  1  0  0  0  0
 20 26  1  0  0  0  0
 20 30  1  0  0  0  0
 28 29  1  0  0  0  0
 28 33  1  0  0  0  0
 28 34  1  0  0  0  0
 28 35  1  0  0  0  0
 29 30  1  0  0  0  0
 29 36  1  0  0  0  0
 29 37  1  0  0  0  0
 30 31  1  0  0  0  0
 30 38  1  0  0  0  0
 31 32  1  0  0  0  0
 31 39  1  0  0  0  0
 31 40  1  0  0  0  0
 32 33  1  0  0  0  0
 32 41  1  0  0  0  0
 32 42  1  0  0  0  0
 43 44  1  0  0  0  0
 43 45  1  0  0  0  0
 43 46  1  0  0  0  0
 46 47  1  0  0  0  0
 46 48  1  0  0  0  0
 46 49  1  0  0  0  0
M  END
>  <r_user_dG.exp>
-12.264000

$$$$
p38a_2aa
  PyMOL2.3          3D                             0

 43 45  0  0  0  0  0  0  0  0999 V2000
   45.9822   32.8976   28.0582 C   0  0  0  0  0  0  0  0  0  0  0  0
   42.5879   33.6758   32.7594 C   0  0  0  0  0  0  0  0  0  0  0  0
   45.3477   32.9138   29.3154 C   0  0  0  0  0  0  0  0  0  0  0  0
   44.1386   37.8930   34.3650 C   0  0  0  0  0  0  0  0  0  0  0  0
   43.6961   38.6555   36.7633 C   0  0  0  0  0  0  0  0  0  0  0  0
   43.9947   36.1282   32.3469 C   0  0  0  0  0  0  0  0  0  0  0  0
   43.9375   35.1132   31.3003 C   0  0  0  0  0  0  0  0  0  0  0  0
   45.2179   32.9711   26.8778 C   0  0  0  0  0  0  0  0  0  0  0  0
   43.8157   33.0295   26.9542 C   0  0  0  0  0  0  0  0  0  0  0  0
   43.1811   33.0201   28.2087 C   0  0  0  0  0  0  0  0  0  0  0  0
   43.4063   35.8418   33.5968 C   0  0  0  0  0  0  0  0  0  0  0  0
   44.6266   37.3796   32.1963 C   0  0  0  0  0  0  0  0  0  0  0  0
   43.3024   33.9386   31.5063 C   0  0  0  0  0  0  0  0  0  0  0  0
   43.9395   32.9775   29.3940 C   0  0  0  0  0  0  0  0  0  0  0  0
   42.0985   34.3242   35.0664 C   0  0  0  0  0  0  0  0  0  0  0  0
   46.0798   32.8787   30.4288 F   0  0  0  0  0  0  0  0  0  0  0  0
   43.2835   32.9028   30.5961 O   0  0  0  0  0  0  0  0  0  0  0  0
   44.7061   38.2628   33.2160 N   0  0  0  0  0  0  0  0  0  0  0  0
   41.8876   32.6729   32.8931 O   0  0  0  0  0  0  0  0  0  0  0  0
   42.7267   34.5925   33.7618 N   0  0  0  0  0  0  0  0  0  0  0  0
   43.4927   36.7498   34.5953 N   0  0  0  0  0  0  0  0  0  0  0  0
   44.2255   38.7864   35.4112 N   0  0  0  0  0  0  0  0  0  0  0  0
   47.0577   32.8499   27.9984 H   0  0  0  0  0  0  0  0  0  0  0  0
   43.5416   37.1987   37.0850 C   0  0  0  0  0  0  0  0  0  0  0  0
   44.4659   35.3279   30.3847 H   0  0  0  0  0  0  0  0  0  0  0  0
   43.2252   33.0736   26.0510 H   0  0  0  0  0  0  0  0  0  0  0  0
   42.1024   33.0265   28.2626 H   0  0  0  0  0  0  0  0  0  0  0  0
   45.0929   37.6601   31.2647 H   0  0  0  0  0  0  0  0  0  0  0  0
   42.7396   34.6470   35.8872 H   0  0  0  0  0  0  0  0  0  0  0  0
   41.1557   34.8670   35.1423 H   0  0  0  0  0  0  0  0  0  0  0  0
   41.8943   33.2689   35.2531 H   0  0  0  0  0  0  0  0  0  0  0  0
   44.7410   39.6346   35.2177 H   0  0  0  0  0  0  0  0  0  0  0  0
   45.8174   32.9944   25.6874 F   0  0  0  0  0  0  0  0  0  0  0  0
   44.6442   39.2918   37.7360 C   0  0  0  0  0  0  0  0  0  0  0  0
   45.8979   38.6512   37.6588 O   0  0  0  0  0  0  0  0  0  0  0  0
   46.5046   39.0585   38.2813 H   0  0  0  0  0  0  0  0  0  0  0  0
   44.7608   40.3479   37.4927 H   0  0  0  0  0  0  0  0  0  0  0  0
   44.2484   39.1940   38.7469 H   0  0  0  0  0  0  0  0  0  0  0  0
   43.0298   37.0568   38.3912 O   0  0  0  0  0  0  0  0  0  0  0  0
   42.8541   36.7399   36.3742 H   0  0  0  0  0  0  0  0  0  0  0  0
   44.5122   36.7068   37.0202 H   0  0  0  0  0  0  0  0  0  0  0  0
   42.9310   36.1244   38.5971 H   0  0  0  0  0  0  0  0  0  0  0  0
   42.7271   39.1511   36.8241 H   0  0  0  0  0  0  0  0  0  0  0  0
  1  3  1  0  0  0  0
  1  8  2  0  0  0  0
  1 23  1  0  0  0  0
  2 13  1  0  0  0  0
  2 19  2  0  0  0  0
  2 20  1  0  0  0  0
  3 14  2  0  0  0  0
  3 16  1  0  0  0  0
  4 18  1  0  0  0  0
  4 21  2  0  0  0  0
  4 22  1  0  0  0  0
  5 22  1  0  0  0  0
  5 24  1  0  0  0  0
  5 34  1  0  0  0  0
  5 43  1  0  0  0  0
  6  7  1  0  0  0  0
  6 11  2  0  0  0  0
  6 12  1  0  0  0  0
  7 13  2  0  0  0  0
  7 25  1  0  0  0  0
  8  9  1  0  0  0  0
  8 33  1  0  0  0  0
  9 10  2  0  0  0  0
  9 26  1  0  0  0  0
 10 14  1  0  0  0  0
 10 27  1  0  0  0  0
 11 20  1  0  0  0  0
 11 21  1  0  0  0  0
 12 18  2  0  0  0  0
 12 28  1  0  0  0  0
 13 17  1  0  0  0  0
 14 17  1  0  0  0  0
 15 20  1  0  0  0  0
 15 29  1  0  0  0  0
 15 30  1  0  0  0  0
 15 31  1  0  0  0  0
 22 32  1  0  0  0  0
 24 39  1  0  0  0  0
 24 40  1  0  0  0  0
 24 41  1  0  0  0  0
 34 35  1  0  0  0  0
 34 37  1  0  0  0  0
 34 38  1  0  0  0  0
 35 36  1  0  0  0  0
 39 42  1  0  0  0  0
M  END
>  <r_user_dG.exp>
-9.268000

$$$$
p38a_2gg
  PyMOL2.3          3D                             0

 48 51  0  0  0  0  0  0  0  0999 V2000
   45.9822   32.8976   28.0582 C   0  0  0  0  0  0  0  0  0  0  0  0
   42.5879   33.6758   32.7594 C   0  0  0  0  0  0  0  0  0  0  0  0
   45.3477   32.9138   29.3154 C   0  0  0  0  0  0  0  0  0  0  0  0
   44.1386   37.8930   34.3650 C   0  0  0  0  0  0  0  0  0  0  0  0
   43.9947   36.1282   32.3469 C   0  0  0  0  0  0  0  0  0  0  0  0
   43.9375   35.1132   31.3003 C   0  0  0  0  0  0  0  0  0  0  0  0
   45.2179   32.9711   26.8778 C   0  0  0  0  0  0  0  0  0  0  0  0
   43.8157   33.0295   26.9542 C   0  0  0  0  0  0  0  0  0  0  0  0
   43.1811   33.0201   28.2087 C   0  0  0  0  0  0  0  0  0  0  0  0
   43.4063   35.8418   33.5968 C   0  0  0  0  0  0  0  0  0  0  0  0
   44.6266   37.3796   32.1963 C   0  0  0  0  0  0  0  0  0  0  0  0
   43.3024   33.9386   31.5063 C   0  0  0  0  0  0  0  0  0  0  0  0
   43.9395   32.9775   29.3940 C   0  0  0  0  0  0  0  0  0  0  0  0
   42.0985   34.3242   35.0664 C   0  0  0  0  0  0  0  0  0  0  0  0
   46.0798   32.8787   30.4288 F   0  0  0  0  0  0  0  0  0  0  0  0
   43.2835   32.9028   30.5961 O   0  0  0  0  0  0  0  0  0  0  0  0
   44.7061   38.2628   33.2160 N   0  0  0  0  0  0  0  0  0  0  0  0
   41.8876   32.6729   32.8931 O   0  0  0  0  0  0  0  0  0  0  0  0
   42.7267   34.5925   33.7618 N   0  0  0  0  0  0  0  0  0  0  0  0
   43.4927   36.7498   34.5953 N   0  0  0  0  0  0  0  0  0  0  0  0
   44.2255   38.7864   35.4112 N   0  0  0  0  0  0  0  0  0  0  0  0
   47.0577   32.8499   27.9984 H   0  0  0  0  0  0  0  0  0  0  0  0
   44.4659   35.3279   30.3847 H   0  0  0  0  0  0  0  0  0  0  0  0
   43.2252   33.0736   26.0510 H   0  0  0  0  0  0  0  0  0  0  0  0
   42.1024   33.0265   28.2626 H   0  0  0  0  0  0  0  0  0  0  0  0
   45.0929   37.6601   31.2647 H   0  0  0  0  0  0  0  0  0  0  0  0
   42.7396   34.6470   35.8872 H   0  0  0  0  0  0  0  0  0  0  0  0
   41.1557   34.8670   35.1423 H   0  0  0  0  0  0  0  0  0  0  0  0
   41.8943   33.2689   35.2531 H   0  0  0  0  0  0  0  0  0  0  0  0
   44.7410   39.6346   35.2177 H   0  0  0  0  0  0  0  0  0  0  0  0
   45.8174   32.9944   25.6874 F   0  0  0  0  0  0  0  0  0  0  0  0
   43.2251   39.2994   39.0479 C   0  0  0  0  0  0  0  0  0  0  0  0
   43.8385   39.6247   37.6766 C   0  0  0  0  0  0  0  0  0  0  0  0
   43.6000   38.4777   36.6814 C   0  0  0  0  0  0  0  0  0  0  0  0
   44.1503   37.1511   37.2290 C   0  0  0  0  0  0  0  0  0  0  0  0
   43.5369   36.8258   38.6003 C   0  0  0  0  0  0  0  0  0  0  0  0
   42.1148   39.2297   38.9514 H   0  0  0  0  0  0  0  0  0  0  0  0
   43.4383   40.1271   39.7675 H   0  0  0  0  0  0  0  0  0  0  0  0
   44.9361   39.7950   37.7914 H   0  0  0  0  0  0  0  0  0  0  0  0
   43.4015   40.5729   37.2782 H   0  0  0  0  0  0  0  0  0  0  0  0
   42.5050   38.3747   36.4886 H   0  0  0  0  0  0  0  0  0  0  0  0
   43.9373   36.3233   36.5094 H   0  0  0  0  0  0  0  0  0  0  0  0
   45.2606   37.2209   37.3256 H   0  0  0  0  0  0  0  0  0  0  0  0
   42.4394   36.6554   38.4856 H   0  0  0  0  0  0  0  0  0  0  0  0
   43.9739   35.8776   38.9987 H   0  0  0  0  0  0  0  0  0  0  0  0
   43.7857   37.9703   39.6158 S   0  0  0  0  0  0  0  0  0  0  0  0
   45.2510   38.1259   39.7720 O   0  0  0  0  0  0  0  0  0  0  0  0
   43.0325   37.6528   40.8516 O   0  0  0  0  0  0  0  0  0  0  0  0
  1  3  1  0  0  0  0
  1  7  2  0  0  0  0
  1 22  1  0  0  0  0
  2 12  1  0  0  0  0
  2 18  2  0  0  0  0
  2 19  1  0  0  0  0
  3 13  2  0  0  0  0
  3 15  1  0  0  0  0
  4 17  1  0  0  0  0
  4 20  2  0  0  0  0
  4 21  1  0  0  0  0
  5  6  1  0  0  0  0
  5 10  2  0  0  0  0
  5 11  1  0  0  0  0
  6 12  2  0  0  0  0
  6 23  1  0  0  0  0
  7  8  1  0  0  0  0
  7 31  1  0  0  0  0
  8  9  2  0  0  0  0
  8 24  1  0  0  0  0
  9 13  1  0  0  0  0
  9 25  1  0  0  0  0
 10 19  1  0  0  0  0
 10 20  1  0  0  0  0
 11 17  2  0  0  0  0
 11 26  1  0  0  0  0
 12 16  1  0  0  0  0
 13 16  1  0  0  0  0
 14 19  1  0  0  0  0
 14 27  1  0  0  0  0
 14 28  1  0  0  0  0
 14 29  1  0  0  0  0
 21 30  1  0  0  0  0
 21 34  1  0  0  0  0
 32 33  1  0  0  0  0
 32 37  1  0  0  0  0
 32 38  1  0  0  0  0
 32 46  1  0  0  0  0
 33 34  1  0  0  0  0
 33 39  1  0  0  0  0
 33 40  1  0  0  0  0
 34 35  1  0  0  0  0
 34 41  1  0  0  0  0
 35 36  1  0  0  0  0
 35 42  1  0  0  0  0
 35 43  1  0  0  0  0
 36 44  1  0  0  0  0
 36 45  1  0  0  0  0
 36 46  1  0  0  0  0
 46 47  2  0  0  0  0
 46 48  2  0  0  0  0
M  END
>  <r_user_dG.exp>
-10.661000

$$$$
p38a_2k
  PyMOL2.3          3D                             0

 43 46  0  0  0  0  0  0  0  0999 V2000
   45.9822   32.8976   28.0582 C   0  0  0  0  0  0  0  0  0  0  0  0
   42.5879   33.6758   32.7594 C   0  0  0  0  0  0  0  0  0  0  0  0
   45.3477   32.9138   29.3154 C   0  0  0  0  0  0  0  0  0  0  0  0
   44.1386   37.8930   34.3650 C   0  0  0  0  0  0  0  0  0  0  0  0
   43.9947   36.1282   32.3469 C   0  0  0  0  0  0  0  0  0  0  0  0
   43.9375   35.1132   31.3003 C   0  0  0  0  0  0  0  0  0  0  0  0
   45.2179   32.9711   26.8778 C   0  0  0  0  0  0  0  0  0  0  0  0
   43.8157   33.0295   26.9542 C   0  0  0  0  0  0  0  0  0  0  0  0
   43.1811   33.0201   28.2087 C   0  0  0  0  0  0  0  0  0  0  0  0
   43.4063   35.8418   33.5968 C   0  0  0  0  0  0  0  0  0  0  0  0
   44.6266   37.3796   32.1963 C   0  0  0  0  0  0  0  0  0  0  0  0
   43.3024   33.9386   31.5063 C   0  0  0  0  0  0  0  0  0  0  0  0
   43.9395   32.9775   29.3940 C   0  0  0  0  0  0  0  0  0  0  0  0
   42.2959   34.4085   34.6566 H   0  0  0  0  0  0  0  0  0  0  0  0
   46.0798   32.8787   30.4288 F   0  0  0  0  0  0  0  0  0  0  0  0
   43.2835   32.9028   30.5961 O   0  0  0  0  0  0  0  0  0  0  0  0
   44.7061   38.2628   33.2160 N   0  0  0  0  0  0  0  0  0  0  0  0
   41.8876   32.6729   32.8931 O   0  0  0  0  0  0  0  0  0  0  0  0
   42.7267   34.5925   33.7618 N   0  0  0  0  0  0  0  0  0  0  0  0
   43.4927   36.7498   34.5953 N   0  0  0  0  0  0  0  0  0  0  0  0
   44.2255   38.7864   35.4112 N   0  0  0  0  0  0  0  0  0  0  0  0
   47.0577   32.8499   27.9984 H   0  0  0  0  0  0  0  0  0  0  0  0
   44.4659   35.3279   30.3847 H   0  0  0  0  0  0  0  0  0  0  0  0
   43.2252   33.0736   26.0510 H   0  0  0  0  0  0  0  0  0  0  0  0
   42.1024   33.0265   28.2626 H   0  0  0  0  0  0  0  0  0  0  0  0
   45.0929   37.6601   31.2647 H   0  0  0  0  0  0  0  0  0  0  0  0
   44.7410   39.6346   35.2177 H   0  0  0  0  0  0  0  0  0  0  0  0
   45.8174   32.9944   25.6874 F   0  0  0  0  0  0  0  0  0  0  0  0
   43.5405   39.7718   39.0236 C   0  0  0  0  0  0  0  0  0  0  0  0
   44.0438   39.9079   37.5777 C   0  0  0  0  0  0  0  0  0  0  0  0
   43.7020   38.6546   36.7560 C   0  0  0  0  0  0  0  0  0  0  0  0
   44.2708   37.3900   37.4193 C   0  0  0  0  0  0  0  0  0  0  0  0
   43.7674   37.2538   38.8652 C   0  0  0  0  0  0  0  0  0  0  0  0
   44.1093   38.5071   39.6870 O   0  0  0  0  0  0  0  0  0  0  0  0
   42.4250   39.7228   39.0258 H   0  0  0  0  0  0  0  0  0  0  0  0
   43.8283   40.6752   39.6147 H   0  0  0  0  0  0  0  0  0  0  0  0
   45.1503   40.0591   37.5820 H   0  0  0  0  0  0  0  0  0  0  0  0
   43.5933   40.8122   37.1002 H   0  0  0  0  0  0  0  0  0  0  0  0
   42.5930   38.5604   36.6659 H   0  0  0  0  0  0  0  0  0  0  0  0
   43.9832   36.4866   36.8282 H   0  0  0  0  0  0  0  0  0  0  0  0
   45.3865   37.4390   37.4171 H   0  0  0  0  0  0  0  0  0  0  0  0
   42.6612   37.1026   38.8609 H   0  0  0  0  0  0  0  0  0  0  0  0
   44.2180   36.3496   39.3427 H   0  0  0  0  0  0  0  0  0  0  0  0
  1  3  1  0  0  0  0
  1  7  2  0  0  0  0
  1 22  1  0  0  0  0
  2 12  1  0  0  0  0
  2 18  2  0  0  0  0
  2 19  1  0  0  0  0
  3 13  2  0  0  0  0
  3 15  1  0  0  0  0
  4 17  1  0  0  0  0
  4 20  2  0  0  0  0
  4 21  1  0  0  0  0
  5  6  1  0  0  0  0
  5 10  2  0  0  0  0
  5 11  1  0  0  0  0
  6 12  2  0  0  0  0
  6 23  1  0  0  0  0
  7  8  1  0  0  0  0
  7 28  1  0  0  0  0
  8  9  2  0  0  0  0
  8 24  1  0  0  0  0
  9 13  1  0  0  0  0
  9 25  1  0  0  0  0
 10 19  1  0  0  0  0
 10 20  1  0  0  0  0
 11 17  2  0  0  0  0
 11 26  1  0  0  0  0
 12 16  1  0  0  0  0
 13 16  1  0  0  0  0
 14 19  1  0  0  0  0
 21 27  1  0  0  0  0
 21 31  1  0  0  0  0
 29 30  1  0  0  0  0
 29 34  1  0  0  0  0
 29 35  1  0  0  0  0
 29 36  1  0  0  0  0
 30 31  1  0  0  0  0
 30 37  1  0  0  0  0
 30 38  1  0  0  0  0
 31 32  1  0  0  0  0
 31 39  1  0  0  0  0
 32 33  1  0  0  0  0
 32 40  1  0  0  0  0
 32 41  1  0  0  0  0
 33 34  1  0  0  0  0
 33 42  1  0  0  0  0
 33 43  1  0  0  0  0
M  END
>  <r_user_dG.exp>
-10.553000

$$$$
p38a_3flq
  PyMOL2.3          3D                             0

 47 49  0  0  1  0  0  0  0  0999 V2000
   44.7270   37.4200   34.5721 C   0  0  0  0  0  0  0  0  0  0  0  0
   44.2947   35.6732   32.5873 C   0  0  0  0  0  0  0  0  0  0  0  0
   44.0664   34.6856   31.5433 C   0  0  0  0  0  0  0  0  0  0  0  0
   43.9843   35.3322   33.9197 C   0  0  0  0  0  0  0  0  0  0  0  0
   43.5192   33.4825   31.8253 C   0  0  0  0  0  0  0  0  0  0  0  0
   44.2661   38.3655   36.8994 C   0  0  1  0  0  0  0  0  0  0  0  0
   45.3424   38.6398   37.9586 C   0  0  0  0  0  0  0  0  0  0  0  0
   41.0463   37.4006   36.9183 C   0  0  0  0  0  0  0  0  0  0  0  0
   43.4176   34.0393   34.1751 N   0  0  0  0  0  0  0  0  0  0  0  0
   43.1245   39.4018   36.9834 C   0  0  0  0  0  0  0  0  0  0  0  0
   45.3716   32.8999   25.7373 F   0  0  0  0  0  0  0  0  0  0  0  0
   44.8851   32.7826   26.9941 C   0  0  0  0  0  0  0  0  0  0  0  0
   43.4954   32.8141   27.2164 C   0  0  0  0  0  0  0  0  0  0  0  0
   42.9893   32.7209   28.5270 C   0  0  0  0  0  0  0  0  0  0  0  0
   45.7680   32.6493   28.0816 C   0  0  0  0  0  0  0  0  0  0  0  0
   45.2651   32.5724   29.3938 C   0  0  0  0  0  0  0  0  0  0  0  0
   46.1247   32.4915   30.4367 F   0  0  0  0  0  0  0  0  0  0  0  0
   43.8702   32.6086   29.6209 C   0  0  0  0  0  0  0  0  0  0  0  0
   43.3529   32.4854   30.8870 O   0  0  0  0  0  0  0  0  0  0  0  0
   43.0746   33.1593   33.1855 C   0  0  0  0  0  0  0  0  0  0  0  0
   42.4134   32.1463   33.4181 O   0  0  0  0  0  0  0  0  0  0  0  0
   44.8259   36.9553   32.3440 C   0  0  0  0  0  0  0  0  0  0  0  0
   45.0567   37.8270   33.3474 N   0  0  0  0  0  0  0  0  0  0  0  0
   44.2132   36.2330   34.9044 N   0  0  0  0  0  0  0  0  0  0  0  0
   43.1312   33.6799   35.5729 C   0  0  0  0  0  0  0  0  0  0  0  0
   44.8703   38.3556   35.5744 N   0  0  0  0  0  0  0  0  0  0  0  0
   41.5935   38.9261   36.0489 S   0  0  0  0  0  0  0  0  0  0  0  0
   40.5857   39.9696   36.2798 O   0  0  0  0  0  0  0  0  0  0  0  0
   41.9396   38.5572   34.6686 O   0  0  0  0  0  0  0  0  0  0  0  0
   44.3928   34.9488   30.5504 H   0  0  0  0  0  0  0  0  0  0  0  0
   43.8580   37.3800   37.1181 H   0  0  0  0  0  0  0  0  0  0  0  0
   46.1429   37.9010   37.9036 H   0  0  0  0  0  0  0  0  0  0  0  0
   45.7897   39.6261   37.8309 H   0  0  0  0  0  0  0  0  0  0  0  0
   44.9240   38.5945   38.9642 H   0  0  0  0  0  0  0  0  0  0  0  0
   40.0753   37.0985   36.5262 H   0  0  0  0  0  0  0  0  0  0  0  0
   41.7638   36.5986   36.7517 H   0  0  0  0  0  0  0  0  0  0  0  0
   40.9543   37.6009   37.9854 H   0  0  0  0  0  0  0  0  0  0  0  0
   42.8228   39.5469   38.0209 H   0  0  0  0  0  0  0  0  0  0  0  0
   43.4512   40.3753   36.6197 H   0  0  0  0  0  0  0  0  0  0  0  0
   42.8160   32.9185   26.3838 H   0  0  0  0  0  0  0  0  0  0  0  0
   41.9219   32.7412   28.6922 H   0  0  0  0  0  0  0  0  0  0  0  0
   46.8338   32.6382   27.9134 H   0  0  0  0  0  0  0  0  0  0  0  0
   45.0834   37.2744   31.3458 H   0  0  0  0  0  0  0  0  0  0  0  0
   43.1215   32.6027   35.7462 H   0  0  0  0  0  0  0  0  0  0  0  0
   43.8840   34.0786   36.2539 H   0  0  0  0  0  0  0  0  0  0  0  0
   42.1615   34.0800   35.8702 H   0  0  0  0  0  0  0  0  0  0  0  0
   45.2780   39.2338   35.2844 H   0  0  0  0  0  0  0  0  0  0  0  0
  1 23  1  0  0  0  0
  1 24  2  0  0  0  0
  1 26  1  0  0  0  0
  2  3  1  0  0  0  0
  2  4  2  0  0  0  0
  2 22  1  0  0  0  0
  3  5  2  0  0  0  0
  3 30  1  0  0  0  0
  4  9  1  0  0  0  0
  4 24  1  0  0  0  0
  5 19  1  0  0  0  0
  5 20  1  0  0  0  0
  6  7  1  0  0  0  0
  6 10  1  0  0  0  0
  6 26  1  0  0  0  0
  6 31  1  0  0  0  0
  7 32  1  0  0  0  0
  7 33  1  0  0  0  0
  7 34  1  0  0  0  0
  8 27  1  0  0  0  0
  8 35  1  0  0  0  0
  8 36  1  0  0  0  0
  8 37  1  0  0  0  0
  9 20  1  0  0  0  0
  9 25  1  0  0  0  0
 10 27  1  0  0  0  0
 10 38  1  0  0  0  0
 10 39  1  0  0  0  0
 11 12  1  0  0  0  0
 12 13  1  0  0  0  0
 12 15  2  0  0  0  0
 13 14  2  0  0  0  0
 13 40  1  0  0  0  0
 14 18  1  0  0  0  0
 14 41  1  0  0  0  0
 15 16  1  0  0  0  0
 15 42  1  0  0  0  0
 16 17  1  0  0  0  0
 16 18  2  0  0  0  0
 18 19  1  0  0  0  0
 20 21  2  0  0  0  0
 22 23  2  0  0  0  0
 22 43  1  0  0  0  0
 25 44  1  0  0  0  0
 25 45  1  0  0  0  0
 25 46  1  0  0  0  0
 26 47  1  0  0  0  0
 27 28  2  0  0  0  0
 27 29  2  0  0  0  0
M  END
>  <r_user_dG.exp>
-9.930990

$$$$
p38a_2p
  PyMOL2.3          3D                             0

 58 61  0  0  0  0  0  0  0  0999 V2000
   45.9822   32.8976   28.0582 C   0  0  0  0  0  0  0  0  0  0  0  0
   42.5879   33.6758   32.7594 C   0  0  0  0  0  0  0  0  0  0  0  0
   45.3477   32.9138   29.3154 C   0  0  0  0  0  0  0  0  0  0  0  0
   44.1386   37.8930   34.3650 C   0  0  0  0  0  0  0  0  0  0  0  0
   43.9947   36.1282   32.3469 C   0  0  0  0  0  0  0  0  0  0  0  0
   43.9375   35.1132   31.3003 C   0  0  0  0  0  0  0  0  0  0  0  0
   45.2179   32.9711   26.8778 C   0  0  0  0  0  0  0  0  0  0  0  0
   43.8157   33.0295   26.9542 C   0  0  0  0  0  0  0  0  0  0  0  0
   43.1811   33.0201   28.2087 C   0  0  0  0  0  0  0  0  0  0  0  0
   43.4063   35.8418   33.5968 C   0  0  0  0  0  0  0  0  0  0  0  0
   44.6266   37.3796   32.1963 C   0  0  0  0  0  0  0  0  0  0  0  0
   43.3024   33.9386   31.5063 C   0  0  0  0  0  0  0  0  0  0  0  0
   43.9395   32.9775   29.3940 C   0  0  0  0  0  0  0  0  0  0  0  0
   46.0798   32.8787   30.4288 F   0  0  0  0  0  0  0  0  0  0  0  0
   43.2835   32.9028   30.5961 O   0  0  0  0  0  0  0  0  0  0  0  0
   44.7061   38.2628   33.2160 N   0  0  0  0  0  0  0  0  0  0  0  0
   41.8876   32.6729   32.8931 O   0  0  0  0  0  0  0  0  0  0  0  0
   42.7267   34.5925   33.7618 N   0  0  0  0  0  0  0  0  0  0  0  0
   43.4927   36.7498   34.5953 N   0  0  0  0  0  0  0  0  0  0  0  0
   44.2255   38.7864   35.4112 N   0  0  0  0  0  0  0  0  0  0  0  0
   47.0577   32.8499   27.9984 H   0  0  0  0  0  0  0  0  0  0  0  0
   44.4659   35.3279   30.3847 H   0  0  0  0  0  0  0  0  0  0  0  0
   43.2252   33.0736   26.0510 H   0  0  0  0  0  0  0  0  0  0  0  0
   42.1024   33.0265   28.2626 H   0  0  0  0  0  0  0  0  0  0  0  0
   45.0929   37.6601   31.2647 H   0  0  0  0  0  0  0  0  0  0  0  0
   44.7410   39.6346   35.2177 H   0  0  0  0  0  0  0  0  0  0  0  0
   45.8174   32.9944   25.6874 F   0  0  0  0  0  0  0  0  0  0  0  0
   43.5405   39.7718   39.0236 C   0  0  0  0  0  0  0  0  0  0  0  0
   44.0438   39.9079   37.5777 C   0  0  0  0  0  0  0  0  0  0  0  0
   43.7020   38.6546   36.7560 C   0  0  0  0  0  0  0  0  0  0  0  0
   44.2708   37.3900   37.4193 C   0  0  0  0  0  0  0  0  0  0  0  0
   43.7674   37.2538   38.8652 C   0  0  0  0  0  0  0  0  0  0  0  0
   44.1093   38.5071   39.6870 O   0  0  0  0  0  0  0  0  0  0  0  0
   42.4250   39.7228   39.0258 H   0  0  0  0  0  0  0  0  0  0  0  0
   43.8283   40.6752   39.6147 H   0  0  0  0  0  0  0  0  0  0  0  0
   45.1503   40.0591   37.5820 H   0  0  0  0  0  0  0  0  0  0  0  0
   43.5933   40.8122   37.1002 H   0  0  0  0  0  0  0  0  0  0  0  0
   42.5930   38.5604   36.6659 H   0  0  0  0  0  0  0  0  0  0  0  0
   43.9832   36.4866   36.8282 H   0  0  0  0  0  0  0  0  0  0  0  0
   45.3865   37.4390   37.4171 H   0  0  0  0  0  0  0  0  0  0  0  0
   42.6612   37.1026   38.8609 H   0  0  0  0  0  0  0  0  0  0  0  0
   44.2180   36.3496   39.3427 H   0  0  0  0  0  0  0  0  0  0  0  0
   42.1086   34.3285   35.0456 C   0  0  0  0  0  0  0  0  0  0  0  0
   42.3214   35.1768   35.7435 H   0  0  0  0  0  0  0  0  0  0  0  0
   41.0026   34.2237   34.9124 H   0  0  0  0  0  0  0  0  0  0  0  0
   42.6757   33.0367   35.6271 C   0  0  0  0  0  0  0  0  0  0  0  0
   42.4628   32.1884   34.9292 H   0  0  0  0  0  0  0  0  0  0  0  0
   43.7817   33.1415   35.7603 H   0  0  0  0  0  0  0  0  0  0  0  0
   42.0250   32.7594   36.9793 C   0  0  0  0  0  0  0  0  0  0  0  0
   42.2381   33.6079   37.6768 H   0  0  0  0  0  0  0  0  0  0  0  0
   42.4407   31.8123   37.4061 H   0  0  0  0  0  0  0  0  0  0  0  0
   40.5423   32.6189   36.8012 S   0  0  0  0  0  0  0  0  0  0  0  0
   40.2932   31.4898   35.8745 O   0  0  0  0  0  0  0  0  0  0  0  0
   39.9986   33.9323   36.3832 O   0  0  0  0  0  0  0  0  0  0  0  0
   39.9502   32.2705   38.1347 C   0  0  0  0  0  0  0  0  0  0  0  0
   40.1268   33.1108   38.8521 H   0  0  0  0  0  0  0  0  0  0  0  0
   38.8501   32.1015   38.0217 H   0  0  0  0  0  0  0  0  0  0  0  0
   40.4325   31.3394   38.5250 H   0  0  0  0  0  0  0  0  0  0  0  0
  1  3  1  0  0  0  0
  1  7  2  0  0  0  0
  1 21  1  0  0  0  0
  2 12  1  0  0  0  0
  2 17  2  0  0  0  0
  2 18  1  0  0  0  0
  3 13  2  0  0  0  0
  3 14  1  0  0  0  0
  4 16  1  0  0  0  0
  4 19  2  0  0  0  0
  4 20  1  0  0  0  0
  5  6  1  0  0  0  0
  5 10  2  0  0  0  0
  5 11  1  0  0  0  0
  6 12  2  0  0  0  0
  6 22  1  0  0  0  0
  7  8  1  0  0  0  0
  7 27  1  0  0  0  0
  8  9  2  0  0  0  0
  8 23  1  0  0  0  0
  9 13  1  0  0  0  0
  9 24  1  0  0  0  0
 10 18  1  0  0  0  0
 10 19  1  0  0  0  0
 11 16  2  0  0  0  0
 11 25  1  0  0  0  0
 12 15  1  0  0  0  0
 13 15  1  0  0  0  0
 18 43  1  0  0  0  0
 20 26  1  0  0  0  0
 20 30  1  0  0  0  0
 28 29  1  0  0  0  0
 28 33  1  0  0  0  0
 28 34  1  0  0  0  0
 28 35  1  0  0  0  0
 29 30  1  0  0  0  0
 29 36  1  0  0  0  0
 29 37  1  0  0  0  0
 30 31  1  0  0  0  0
 30 38  1  0  0  0  0
 31 32  1  0  0  0  0
 31 39  1  0  0  0  0
 31 40  1  0  0  0  0
 32 33  1  0  0  0  0
 32 41  1  0  0  0  0
 32 42  1  0  0  0  0
 43 44  1  0  0  0  0
 43 45  1  0  0  0  0
 43 46  1  0  0  0  0
 46 47  1  0  0  0  0
 46 48  1  0  0  0  0
 46 49  1  0  0  0  0
 49 50  1  0  0  0  0
 49 51  1  0  0  0  0
 49 52  1  0  0  0  0
 52 53  2  0  0  0  0
 52 54  2  0  0  0  0
 52 55  1  0  0  0  0
 55 56  1  0  0  0  0
 55 57  1  0  0  0  0
 55 58  1  0  0  0  0
M  END
>  <r_user_dG.exp>
-11.204000

$$$$
p38a_3fmk
  PyMOL2.3          3D                             0

 46 49  0  0  1  0  0  0  0  0999 V2000
   45.2145   32.9732   29.3379 C   0  0  0  0  0  0  0  0  0  0  0  0
   45.8919   32.9186   28.1037 C   0  0  0  0  0  0  0  0  0  0  0  0
   42.4665   34.3156   35.1954 C   0  0  0  0  0  0  0  0  0  0  0  0
   43.8040   33.3731   26.9340 C   0  0  0  0  0  0  0  0  0  0  0  0
   44.7904   37.4579   32.2158 C   0  0  0  0  0  0  0  0  0  0  0  0
   44.3325   38.5793   36.8822 C   0  0  1  0  0  0  0  0  0  0  0  0
   43.0066   39.3421   37.0645 C   0  0  0  0  0  0  0  0  0  0  0  0
   44.5956   37.8630   34.4480 C   0  0  0  0  0  0  0  0  0  0  0  0
   42.6903   33.7981   32.8302 C   0  0  0  0  0  0  0  0  0  0  0  0
   43.2773   34.1047   31.5196 C   0  0  0  0  0  0  0  0  0  0  0  0
   43.9267   35.2703   31.3056 C   0  0  0  0  0  0  0  0  0  0  0  0
   43.8209   33.1967   29.3693 C   0  0  0  0  0  0  0  0  0  0  0  0
   43.1248   33.4115   28.1648 C   0  0  0  0  0  0  0  0  0  0  0  0
   44.1370   36.2208   32.3838 C   0  0  0  0  0  0  0  0  0  0  0  0
   43.6910   35.8834   33.6781 C   0  0  0  0  0  0  0  0  0  0  0  0
   44.8183   38.7061   35.5146 N   0  0  0  0  0  0  0  0  0  0  0  0
   45.1858   33.1159   26.9023 C   0  0  0  0  0  0  0  0  0  0  0  0
   45.8339   33.0835   25.7152 F   0  0  0  0  0  0  0  0  0  0  0  0
   45.9071   32.8352   30.4919 F   0  0  0  0  0  0  0  0  0  0  0  0
   43.1198   33.1423   30.5503 O   0  0  0  0  0  0  0  0  0  0  0  0
   41.9676   32.8151   32.9968 O   0  0  0  0  0  0  0  0  0  0  0  0
   42.9757   34.6529   33.8552 N   0  0  0  0  0  0  0  0  0  0  0  0
   43.9444   36.7274   34.7012 N   0  0  0  0  0  0  0  0  0  0  0  0
   45.0246   38.2815   33.2589 N   0  0  0  0  0  0  0  0  0  0  0  0
   45.3974   39.0675   37.8718 C   0  0  0  0  0  0  0  0  0  0  0  0
   41.9149   38.7644   36.2986 N   0  0  0  0  0  0  0  0  0  0  0  0
   41.4014   39.3463   35.1979 N   0  0  0  0  0  0  0  0  0  0  0  0
   40.4954   38.4382   34.8719 C   0  0  0  0  0  0  0  0  0  0  0  0
   40.4521   37.3651   35.7100 N   0  0  0  0  0  0  0  0  0  0  0  0
   41.3434   37.5860   36.6193 N   0  0  0  0  0  0  0  0  0  0  0  0
   46.9567   32.7484   28.0826 H   0  0  0  0  0  0  0  0  0  0  0  0
   43.0016   34.8188   36.0002 H   0  0  0  0  0  0  0  0  0  0  0  0
   41.4139   34.5886   35.2762 H   0  0  0  0  0  0  0  0  0  0  0  0
   42.5549   33.2495   35.4100 H   0  0  0  0  0  0  0  0  0  0  0  0
   43.2663   33.5408   26.0142 H   0  0  0  0  0  0  0  0  0  0  0  0
   45.1482   37.7725   31.2478 H   0  0  0  0  0  0  0  0  0  0  0  0
   44.1606   37.5249   37.0995 H   0  0  0  0  0  0  0  0  0  0  0  0
   42.7132   39.3348   38.1140 H   0  0  0  0  0  0  0  0  0  0  0  0
   43.1303   40.3846   36.7722 H   0  0  0  0  0  0  0  0  0  0  0  0
   44.3516   35.5188   30.3467 H   0  0  0  0  0  0  0  0  0  0  0  0
   42.0659   33.6047   28.1839 H   0  0  0  0  0  0  0  0  0  0  0  0
   45.3018   39.5674   35.2961 H   0  0  0  0  0  0  0  0  0  0  0  0
   46.3406   38.5413   37.7232 H   0  0  0  0  0  0  0  0  0  0  0  0
   45.5857   40.1359   37.7639 H   0  0  0  0  0  0  0  0  0  0  0  0
   45.0815   38.8916   38.9006 H   0  0  0  0  0  0  0  0  0  0  0  0
   39.8401   38.5505   34.0234 H   0  0  0  0  0  0  0  0  0  0  0  0
  1  2  1  0  0  0  0
  1 12  2  0  0  0  0
  1 19  1  0  0  0  0
  2 17  2  0  0  0  0
  2 31  1  0  0  0  0
  3 22  1  0  0  0  0
  3 32  1  0  0  0  0
  3 33  1  0  0  0  0
  3 34  1  0  0  0  0
  4 13  2  0  0  0  0
  4 17  1  0  0  0  0
  4 35  1  0  0  0  0
  5 14  1  0  0  0  0
  5 24  2  0  0  0  0
  5 36  1  0  0  0  0
  6  7  1  0  0  0  0
  6 16  1  0  0  0  0
  6 25  1  0  0  0  0
  6 37  1  0  0  0  0
  7 26  1  0  0  0  0
  7 38  1  0  0  0  0
  7 39  1  0  0  0  0
  8 16  1  0  0  0  0
  8 23  2  0  0  0  0
  8 24  1  0  0  0  0
  9 10  1  0  0  0  0
  9 21  2  0  0  0  0
  9 22  1  0  0  0  0
 10 11  2  0  0  0  0
 10 20  1  0  0  0  0
 11 14  1  0  0  0  0
 11 40  1  0  0  0  0
 12 13  1  0  0  0  0
 12 20  1  0  0  0  0
 13 41  1  0  0  0  0
 14 15  2  0  0  0  0
 15 22  1  0  0  0  0
 15 23  1  0  0  0  0
 16 42  1  0  0  0  0
 17 18  1  0  0  0  0
 25 43  1  0  0  0  0
 25 44  1  0  0  0  0
 25 45  1  0  0  0  0
 26 27  1  0  0  0  0
 26 30  1  0  0  0  0
 27 28  2  0  0  0  0
 28 29  1  0  0  0  0
 28 46  1  0  0  0  0
 29 30  2  0  0  0  0
M  END
>  <r_user_dG.exp>
-11.832500

$$$$
p38a_2j
  PyMOL2.3          3D                             0

 48 51  0  0  0  0  0  0  0  0999 V2000
   42.3250   39.3307   36.8840 C   0  0  0  0  0  0  0  0  0  0  0  0
   41.8162   39.2582   38.3328 C   0  0  0  0  0  0  0  0  0  0  0  0
   44.0213   39.1916   39.2074 C   0  0  0  0  0  0  0  0  0  0  0  0
   44.6441   39.2671   37.8046 C   0  0  0  0  0  0  0  0  0  0  0  0
   46.0420   32.8138   27.8657 C   0  0  0  0  0  0  0  0  0  0  0  0
   42.7619   39.8553   39.2125 O   0  0  0  0  0  0  0  0  0  0  0  0
   42.5879   33.6758   32.7594 C   0  0  0  0  0  0  0  0  0  0  0  0
   45.4074   32.8299   29.1229 C   0  0  0  0  0  0  0  0  0  0  0  0
   44.1386   37.8930   34.3650 C   0  0  0  0  0  0  0  0  0  0  0  0
   43.6961   38.6555   36.7633 C   0  0  0  0  0  0  0  0  0  0  0  0
   43.9947   36.1282   32.3469 C   0  0  0  0  0  0  0  0  0  0  0  0
   43.9375   35.1132   31.3003 C   0  0  0  0  0  0  0  0  0  0  0  0
   43.8755   32.9457   26.7617 C   0  0  0  0  0  0  0  0  0  0  0  0
   43.2409   32.9362   28.0163 C   0  0  0  0  0  0  0  0  0  0  0  0
   43.4063   35.8418   33.5968 C   0  0  0  0  0  0  0  0  0  0  0  0
   44.6266   37.3796   32.1963 C   0  0  0  0  0  0  0  0  0  0  0  0
   43.3024   33.9386   31.5063 C   0  0  0  0  0  0  0  0  0  0  0  0
   43.9993   32.8936   29.2014 C   0  0  0  0  0  0  0  0  0  0  0  0
   42.0985   34.3242   35.0664 C   0  0  0  0  0  0  0  0  0  0  0  0
   46.1395   32.7949   30.2363 F   0  0  0  0  0  0  0  0  0  0  0  0
   43.2819   32.8120   30.5162 C   0  0  0  0  0  0  0  0  0  0  0  0
   44.7061   38.2628   33.2160 N   0  0  0  0  0  0  0  0  0  0  0  0
   41.8876   32.6729   32.8931 O   0  0  0  0  0  0  0  0  0  0  0  0
   42.7267   34.5925   33.7618 N   0  0  0  0  0  0  0  0  0  0  0  0
   43.4927   36.7498   34.5953 N   0  0  0  0  0  0  0  0  0  0  0  0
   44.2255   38.7864   35.4112 N   0  0  0  0  0  0  0  0  0  0  0  0
   41.6055   38.8596   36.2130 H   0  0  0  0  0  0  0  0  0  0  0  0
   42.4075   40.3723   36.5759 H   0  0  0  0  0  0  0  0  0  0  0  0
   40.8743   39.7956   38.4266 H   0  0  0  0  0  0  0  0  0  0  0  0
   41.6283   38.2258   38.6308 H   0  0  0  0  0  0  0  0  0  0  0  0
   43.9028   38.1548   39.5267 H   0  0  0  0  0  0  0  0  0  0  0  0
   44.6753   39.6762   39.9328 H   0  0  0  0  0  0  0  0  0  0  0  0
   44.8374   40.3136   37.5701 H   0  0  0  0  0  0  0  0  0  0  0  0
   45.6055   38.7526   37.7923 H   0  0  0  0  0  0  0  0  0  0  0  0
   47.1174   32.7661   27.8060 H   0  0  0  0  0  0  0  0  0  0  0  0
   43.5837   37.5964   36.9972 H   0  0  0  0  0  0  0  0  0  0  0  0
   44.4659   35.3279   30.3847 H   0  0  0  0  0  0  0  0  0  0  0  0
   43.2850   32.9897   25.8585 H   0  0  0  0  0  0  0  0  0  0  0  0
   42.1623   32.9426   28.0701 H   0  0  0  0  0  0  0  0  0  0  0  0
   45.0929   37.6601   31.2647 H   0  0  0  0  0  0  0  0  0  0  0  0
   42.7396   34.6470   35.8872 H   0  0  0  0  0  0  0  0  0  0  0  0
   41.1557   34.8670   35.1423 H   0  0  0  0  0  0  0  0  0  0  0  0
   41.8943   33.2689   35.2531 H   0  0  0  0  0  0  0  0  0  0  0  0
   44.7410   39.6346   35.2177 H   0  0  0  0  0  0  0  0  0  0  0  0
   43.7115   31.9196   30.9715 H   0  0  0  0  0  0  0  0  0  0  0  0
   42.2534   32.6079   30.2184 H   0  0  0  0  0  0  0  0  0  0  0  0
   45.3102   32.8880   26.6214 C   0  0  0  0  0  0  0  0  0  0  0  0
   45.9153   32.9020   25.4337 F   0  0  0  0  0  0  0  0  0  0  0  0
  1  2  1  0  0  0  0
  1 10  1  0  0  0  0
  1 27  1  0  0  0  0
  1 28  1  0  0  0  0
  2  6  1  0  0  0  0
  2 29  1  0  0  0  0
  2 30  1  0  0  0  0
  3  4  1  0  0  0  0
  3  6  1  0  0  0  0
  3 31  1  0  0  0  0
  3 32  1  0  0  0  0
  4 10  1  0  0  0  0
  4 33  1  0  0  0  0
  4 34  1  0  0  0  0
  5  8  1  0  0  0  0
  5 35  1  0  0  0  0
  5 47  2  0  0  0  0
  7 17  1  0  0  0  0
  7 23  2  0  0  0  0
  7 24  1  0  0  0  0
  8 18  2  0  0  0  0
  8 20  1  0  0  0  0
  9 22  1  0  0  0  0
  9 25  2  0  0  0  0
  9 26  1  0  0  0  0
 10 26  1  0  0  0  0
 10 36  1  0  0  0  0
 11 12  1  0  0  0  0
 11 15  2  0  0  0  0
 11 16  1  0  0  0  0
 12 17  2  0  0  0  0
 12 37  1  0  0  0  0
 13 14  2  0  0  0  0
 13 38  1  0  0  0  0
 13 47  1  0  0  0  0
 14 18  1  0  0  0  0
 14 39  1  0  0  0  0
 15 24  1  0  0  0  0
 15 25  1  0  0  0  0
 16 22  2  0  0  0  0
 16 40  1  0  0  0  0
 17 21  1  0  0  0  0
 18 21  1  0  0  0  0
 19 24  1  0  0  0  0
 19 41  1  0  0  0  0
 19 42  1  0  0  0  0
 19 43  1  0  0  0  0
 21 45  1  0  0  0  0
 21 46  1  0  0  0  0
 26 44  1  0  0  0  0
 47 48  1  0  0  0  0
M  END
>  <r_user_dG.exp>
-10.081000

$$$$
p38a_2g
  PyMOL2.3          3D                             0

 46 49  0  0  0  0  0  0  0  0999 V2000
   42.3250   39.3307   36.8840 C   0  0  0  0  0  0  0  0  0  0  0  0
   41.8162   39.2582   38.3328 C   0  0  0  0  0  0  0  0  0  0  0  0
   44.0213   39.1916   39.2074 C   0  0  0  0  0  0  0  0  0  0  0  0
   44.6441   39.2671   37.8046 C   0  0  0  0  0  0  0  0  0  0  0  0
   45.9822   32.8976   28.0582 C   0  0  0  0  0  0  0  0  0  0  0  0
   42.7619   39.8553   39.2125 O   0  0  0  0  0  0  0  0  0  0  0  0
   42.5879   33.6758   32.7594 C   0  0  0  0  0  0  0  0  0  0  0  0
   45.3477   32.9138   29.3154 C   0  0  0  0  0  0  0  0  0  0  0  0
   44.1386   37.8930   34.3650 C   0  0  0  0  0  0  0  0  0  0  0  0
   43.6961   38.6555   36.7633 C   0  0  0  0  0  0  0  0  0  0  0  0
   43.9947   36.1282   32.3469 C   0  0  0  0  0  0  0  0  0  0  0  0
   43.9375   35.1132   31.3003 C   0  0  0  0  0  0  0  0  0  0  0  0
   45.2179   32.9711   26.8778 C   0  0  0  0  0  0  0  0  0  0  0  0
   43.8157   33.0295   26.9542 C   0  0  0  0  0  0  0  0  0  0  0  0
   43.1811   33.0201   28.2087 C   0  0  0  0  0  0  0  0  0  0  0  0
   43.4063   35.8418   33.5968 C   0  0  0  0  0  0  0  0  0  0  0  0
   44.6266   37.3796   32.1963 C   0  0  0  0  0  0  0  0  0  0  0  0
   43.3024   33.9386   31.5063 C   0  0  0  0  0  0  0  0  0  0  0  0
   43.9395   32.9775   29.3940 C   0  0  0  0  0  0  0  0  0  0  0  0
   42.0985   34.3242   35.0664 C   0  0  0  0  0  0  0  0  0  0  0  0
   46.0798   32.8787   30.4288 F   0  0  0  0  0  0  0  0  0  0  0  0
   43.2835   32.9028   30.5961 O   0  0  0  0  0  0  0  0  0  0  0  0
   44.7061   38.2628   33.2160 N   0  0  0  0  0  0  0  0  0  0  0  0
   41.8876   32.6729   32.8931 O   0  0  0  0  0  0  0  0  0  0  0  0
   42.7267   34.5925   33.7618 N   0  0  0  0  0  0  0  0  0  0  0  0
   43.4927   36.7498   34.5953 N   0  0  0  0  0  0  0  0  0  0  0  0
   44.2255   38.7864   35.4112 N   0  0  0  0  0  0  0  0  0  0  0  0
   41.6055   38.8596   36.2130 H   0  0  0  0  0  0  0  0  0  0  0  0
   42.4075   40.3723   36.5759 H   0  0  0  0  0  0  0  0  0  0  0  0
   40.8743   39.7956   38.4266 H   0  0  0  0  0  0  0  0  0  0  0  0
   41.6283   38.2258   38.6308 H   0  0  0  0  0  0  0  0  0  0  0  0
   43.9028   38.1548   39.5267 H   0  0  0  0  0  0  0  0  0  0  0  0
   44.6753   39.6762   39.9328 H   0  0  0  0  0  0  0  0  0  0  0  0
   44.8374   40.3136   37.5701 H   0  0  0  0  0  0  0  0  0  0  0  0
   45.6055   38.7526   37.7923 H   0  0  0  0  0  0  0  0  0  0  0  0
   47.0577   32.8499   27.9984 H   0  0  0  0  0  0  0  0  0  0  0  0
   43.5837   37.5964   36.9972 H   0  0  0  0  0  0  0  0  0  0  0  0
   44.4659   35.3279   30.3847 H   0  0  0  0  0  0  0  0  0  0  0  0
   43.2252   33.0736   26.0510 H   0  0  0  0  0  0  0  0  0  0  0  0
   42.1024   33.0265   28.2626 H   0  0  0  0  0  0  0  0  0  0  0  0
   45.0929   37.6601   31.2647 H   0  0  0  0  0  0  0  0  0  0  0  0
   42.7396   34.6470   35.8872 H   0  0  0  0  0  0  0  0  0  0  0  0
   41.1557   34.8670   35.1423 H   0  0  0  0  0  0  0  0  0  0  0  0
   41.8943   33.2689   35.2531 H   0  0  0  0  0  0  0  0  0  0  0  0
   44.7410   39.6346   35.2177 H   0  0  0  0  0  0  0  0  0  0  0  0
   45.7036   32.9900   25.9133 H   0  0  0  0  0  0  0  0  0  0  0  0
  1  2  1  0  0  0  0
  1 10  1  0  0  0  0
  1 28  1  0  0  0  0
  1 29  1  0  0  0  0
  2  6  1  0  0  0  0
  2 30  1  0  0  0  0
  2 31  1  0  0  0  0
  3  4  1  0  0  0  0
  3  6  1  0  0  0  0
  3 32  1  0  0  0  0
  3 33  1  0  0  0  0
  4 10  1  0  0  0  0
  4 34  1  0  0  0  0
  4 35  1  0  0  0  0
  5  8  1  0  0  0  0
  5 13  2  0  0  0  0
  5 36  1  0  0  0  0
  7 18  1  0  0  0  0
  7 24  2  0  0  0  0
  7 25  1  0  0  0  0
  8 19  2  0  0  0  0
  8 21  1  0  0  0  0
  9 23  1  0  0  0  0
  9 26  2  0  0  0  0
  9 27  1  0  0  0  0
 10 27  1  0  0  0  0
 10 37  1  0  0  0  0
 11 12  1  0  0  0  0
 11 16  2  0  0  0  0
 11 17  1  0  0  0  0
 12 18  2  0  0  0  0
 12 38  1  0  0  0  0
 13 14  1  0  0  0  0
 13 46  1  0  0  0  0
 14 15  2  0  0  0  0
 14 39  1  0  0  0  0
 15 19  1  0  0  0  0
 15 40  1  0  0  0  0
 16 25  1  0  0  0  0
 16 26  1  0  0  0  0
 17 23  2  0  0  0  0
 17 41  1  0  0  0  0
 18 22  1  0  0  0  0
 19 22  1  0  0  0  0
 20 25  1  0  0  0  0
 20 42  1  0  0  0  0
 20 43  1  0  0  0  0
 20 44  1  0  0  0  0
 27 45  1  0  0  0  0
M  END
>  <r_user_dG.exp>
-10.661000

$$$$
p38a_2c
  PyMOL2.3          3D                             0

 45 48  0  0  0  0  0  0  0  0999 V2000
   42.3250   39.3307   36.8840 C   0  0  0  0  0  0  0  0  0  0  0  0
   41.8162   39.2582   38.3328 C   0  0  0  0  0  0  0  0  0  0  0  0
   44.0213   39.1916   39.2074 C   0  0  0  0  0  0  0  0  0  0  0  0
   44.6441   39.2671   37.8046 C   0  0  0  0  0  0  0  0  0  0  0  0
   42.7619   39.8553   39.2125 O   0  0  0  0  0  0  0  0  0  0  0  0
   42.5879   33.6758   32.7594 C   0  0  0  0  0  0  0  0  0  0  0  0
   44.1386   37.8930   34.3650 C   0  0  0  0  0  0  0  0  0  0  0  0
   43.6961   38.6555   36.7633 C   0  0  0  0  0  0  0  0  0  0  0  0
   43.9947   36.1282   32.3469 C   0  0  0  0  0  0  0  0  0  0  0  0
   43.9375   35.1132   31.3003 C   0  0  0  0  0  0  0  0  0  0  0  0
   43.4063   35.8418   33.5968 C   0  0  0  0  0  0  0  0  0  0  0  0
   44.6266   37.3796   32.1963 C   0  0  0  0  0  0  0  0  0  0  0  0
   42.0985   34.3242   35.0664 C   0  0  0  0  0  0  0  0  0  0  0  0
   44.7061   38.2628   33.2160 N   0  0  0  0  0  0  0  0  0  0  0  0
   41.8876   32.6729   32.8931 O   0  0  0  0  0  0  0  0  0  0  0  0
   42.7267   34.5925   33.7618 N   0  0  0  0  0  0  0  0  0  0  0  0
   43.4927   36.7498   34.5953 N   0  0  0  0  0  0  0  0  0  0  0  0
   44.2255   38.7864   35.4112 N   0  0  0  0  0  0  0  0  0  0  0  0
   41.6055   38.8596   36.2130 H   0  0  0  0  0  0  0  0  0  0  0  0
   42.4075   40.3723   36.5759 H   0  0  0  0  0  0  0  0  0  0  0  0
   40.8743   39.7956   38.4266 H   0  0  0  0  0  0  0  0  0  0  0  0
   41.6283   38.2258   38.6308 H   0  0  0  0  0  0  0  0  0  0  0  0
   43.9028   38.1548   39.5267 H   0  0  0  0  0  0  0  0  0  0  0  0
   44.6753   39.6762   39.9328 H   0  0  0  0  0  0  0  0  0  0  0  0
   44.8374   40.3136   37.5701 H   0  0  0  0  0  0  0  0  0  0  0  0
   45.6055   38.7526   37.7923 H   0  0  0  0  0  0  0  0  0  0  0  0
   43.5837   37.5964   36.9972 H   0  0  0  0  0  0  0  0  0  0  0  0
   44.4659   35.3279   30.3847 H   0  0  0  0  0  0  0  0  0  0  0  0
   45.0929   37.6601   31.2647 H   0  0  0  0  0  0  0  0  0  0  0  0
   42.7396   34.6470   35.8872 H   0  0  0  0  0  0  0  0  0  0  0  0
   41.1557   34.8670   35.1423 H   0  0  0  0  0  0  0  0  0  0  0  0
   41.8943   33.2689   35.2531 H   0  0  0  0  0  0  0  0  0  0  0  0
   44.7410   39.6346   35.2177 H   0  0  0  0  0  0  0  0  0  0  0  0
   43.3047   33.8838   31.4485 C   0  0  0  0  0  0  0  0  0  0  0  0
   43.3851   30.8965   28.3958 C   0  0  0  0  0  0  0  0  0  0  0  0
   44.0408   32.1225   28.1961 C   0  0  0  0  0  0  0  0  0  0  0  0
   44.0144   33.1046   29.1997 C   0  0  0  0  0  0  0  0  0  0  0  0
   43.3322   32.8608   30.4031 C   0  0  0  0  0  0  0  0  0  0  0  0
   42.6765   31.6348   30.6029 C   0  0  0  0  0  0  0  0  0  0  0  0
   42.7031   30.6526   29.5992 C   0  0  0  0  0  0  0  0  0  0  0  0
   43.4059   30.1248   27.6074 H   0  0  0  0  0  0  0  0  0  0  0  0
   44.5767   32.3140   27.2507 H   0  0  0  0  0  0  0  0  0  0  0  0
   44.8219   34.6147   28.9538 Cl  0  0  0  0  0  0  0  0  0  0  0  0
   42.1408   31.4434   31.5481 H   0  0  0  0  0  0  0  0  0  0  0  0
   42.1879   29.6895   29.7560 H   0  0  0  0  0  0  0  0  0  0  0  0
  1  2  1  0  0  0  0
  1  8  1  0  0  0  0
  1 19  1  0  0  0  0
  1 20  1  0  0  0  0
  2  5  1  0  0  0  0
  2 21  1  0  0  0  0
  2 22  1  0  0  0  0
  3  4  1  0  0  0  0
  3  5  1  0  0  0  0
  3 23  1  0  0  0  0
  3 24  1  0  0  0  0
  4  8  1  0  0  0  0
  4 25  1  0  0  0  0
  4 26  1  0  0  0  0
  6 15  2  0  0  0  0
  6 16  1  0  0  0  0
  6 34  1  0  0  0  0
  7 14  1  0  0  0  0
  7 17  2  0  0  0  0
  7 18  1  0  0  0  0
  8 18  1  0  0  0  0
  8 27  1  0  0  0  0
  9 10  1  0  0  0  0
  9 11  2  0  0  0  0
  9 12  1  0  0  0  0
 10 28  1  0  0  0  0
 10 34  2  0  0  0  0
 11 16  1  0  0  0  0
 11 17  1  0  0  0  0
 12 14  2  0  0  0  0
 12 29  1  0  0  0  0
 13 16  1  0  0  0  0
 13 30  1  0  0  0  0
 13 31  1  0  0  0  0
 13 32  1  0  0  0  0
 18 33  1  0  0  0  0
 34 38  1  0  0  0  0
 35 36  2  0  0  0  0
 35 40  1  0  0  0  0
 35 41  1  0  0  0  0
 36 37  1  0  0  0  0
 36 42  1  0  0  0  0
 37 38  2  0  0  0  0
 37 43  1  0  0  0  0
 38 39  1  0  0  0  0
 39 40  2  0  0  0  0
 39 44  1  0  0  0  0
 40 45  1  0  0  0  0
M  END
>  <r_user_dG.exp>
-10.462000

$$$$
p38a_2x
  PyMOL2.3          3D                             0

 43 46  0  0  1  0  0  0  0  0999 V2000
   45.9822   32.8976   28.0582 C   0  0  0  0  0  0  0  0  0  0  0  0
   42.5879   33.6758   32.7594 C   0  0  0  0  0  0  0  0  0  0  0  0
   45.3477   32.9138   29.3154 C   0  0  0  0  0  0  0  0  0  0  0  0
   44.1386   37.8930   34.3650 C   0  0  0  0  0  0  0  0  0  0  0  0
   43.9947   36.1282   32.3469 C   0  0  0  0  0  0  0  0  0  0  0  0
   43.9375   35.1132   31.3003 C   0  0  0  0  0  0  0  0  0  0  0  0
   45.2179   32.9711   26.8778 C   0  0  0  0  0  0  0  0  0  0  0  0
   43.8157   33.0295   26.9542 C   0  0  0  0  0  0  0  0  0  0  0  0
   43.1811   33.0201   28.2087 C   0  0  0  0  0  0  0  0  0  0  0  0
   43.4063   35.8418   33.5968 C   0  0  0  0  0  0  0  0  0  0  0  0
   44.6266   37.3796   32.1963 C   0  0  0  0  0  0  0  0  0  0  0  0
   43.3024   33.9386   31.5063 C   0  0  0  0  0  0  0  0  0  0  0  0
   43.9395   32.9775   29.3940 C   0  0  0  0  0  0  0  0  0  0  0  0
   42.0985   34.3242   35.0664 C   0  0  0  0  0  0  0  0  0  0  0  0
   46.0798   32.8787   30.4288 F   0  0  0  0  0  0  0  0  0  0  0  0
   43.2835   32.9028   30.5961 O   0  0  0  0  0  0  0  0  0  0  0  0
   44.7061   38.2628   33.2160 N   0  0  0  0  0  0  0  0  0  0  0  0
   41.8876   32.6729   32.8931 O   0  0  0  0  0  0  0  0  0  0  0  0
   42.7267   34.5925   33.7618 N   0  0  0  0  0  0  0  0  0  0  0  0
   43.4927   36.7498   34.5953 N   0  0  0  0  0  0  0  0  0  0  0  0
   44.2255   38.7864   35.4112 N   0  0  0  0  0  0  0  0  0  0  0  0
   47.0577   32.8499   27.9984 H   0  0  0  0  0  0  0  0  0  0  0  0
   44.4659   35.3279   30.3847 H   0  0  0  0  0  0  0  0  0  0  0  0
   43.2252   33.0736   26.0510 H   0  0  0  0  0  0  0  0  0  0  0  0
   42.1024   33.0265   28.2626 H   0  0  0  0  0  0  0  0  0  0  0  0
   45.0929   37.6601   31.2647 H   0  0  0  0  0  0  0  0  0  0  0  0
   42.7396   34.6470   35.8872 H   0  0  0  0  0  0  0  0  0  0  0  0
   41.1557   34.8670   35.1423 H   0  0  0  0  0  0  0  0  0  0  0  0
   41.8943   33.2689   35.2531 H   0  0  0  0  0  0  0  0  0  0  0  0
   44.7410   39.6346   35.2177 H   0  0  0  0  0  0  0  0  0  0  0  0
   45.8174   32.9944   25.6874 F   0  0  0  0  0  0  0  0  0  0  0  0
   41.9006   36.9826   36.6864 O   0  0  0  0  0  0  0  0  0  0  0  0
   41.4095   38.3410   36.1687 C   0  0  0  0  0  0  0  0  0  0  0  0
   42.3385   39.3503   36.8470 C   0  0  0  0  0  0  0  0  0  0  0  0
   43.6987   38.6538   36.7646 C   0  0  1  0  0  0  0  0  0  0  0  0
   43.3820   37.1803   37.0554 C   0  0  0  0  0  0  0  0  0  0  0  0
   40.3313   38.5289   36.3904 H   0  0  0  0  0  0  0  0  0  0  0  0
   41.5500   38.3969   35.0616 H   0  0  0  0  0  0  0  0  0  0  0  0
   42.3309   40.3503   36.3504 H   0  0  0  0  0  0  0  0  0  0  0  0
   42.0419   39.4817   37.9160 H   0  0  0  0  0  0  0  0  0  0  0  0
   44.4485   39.0867   37.4699 H   0  0  0  0  0  0  0  0  0  0  0  0
   43.5360   36.9672   38.1412 H   0  0  0  0  0  0  0  0  0  0  0  0
   44.0551   36.4988   36.4814 H   0  0  0  0  0  0  0  0  0  0  0  0
  1  3  1  0  0  0  0
  1  7  2  0  0  0  0
  1 22  1  0  0  0  0
  2 12  1  0  0  0  0
  2 18  2  0  0  0  0
  2 19  1  0  0  0  0
  3 13  2  0  0  0  0
  3 15  1  0  0  0  0
  4 17  1  0  0  0  0
  4 20  2  0  0  0  0
  4 21  1  0  0  0  0
  5  6  1  0  0  0  0
  5 10  2  0  0  0  0
  5 11  1  0  0  0  0
  6 12  2  0  0  0  0
  6 23  1  0  0  0  0
  7  8  1  0  0  0  0
  7 31  1  0  0  0  0
  8  9  2  0  0  0  0
  8 24  1  0  0  0  0
  9 13  1  0  0  0  0
  9 25  1  0  0  0  0
 10 19  1  0  0  0  0
 10 20  1  0  0  0  0
 11 17  2  0  0  0  0
 11 26  1  0  0  0  0
 12 16  1  0  0  0  0
 13 16  1  0  0  0  0
 14 19  1  0  0  0  0
 14 27  1  0  0  0  0
 14 28  1  0  0  0  0
 14 29  1  0  0  0  0
 21 30  1  0  0  0  0
 21 35  1  0  0  0  0
 32 33  1  0  0  0  0
 32 36  1  0  0  0  0
 33 34  1  0  0  0  0
 33 37  1  0  0  0  0
 33 38  1  0  0  0  0
 34 35  1  0  0  0  0
 34 39  1  0  0  0  0
 34 40  1  0  0  0  0
 35 36  1  0  0  0  0
 35 41  1  0  0  0  0
 36 42  1  0  0  0  0
 36 43  1  0  0  0  0
M  END
>  <r_user_dG.exp>
-10.232000

$$$$
p38a_3flw
  PyMOL2.3          3D                             0

 49 51  0  0  0  0  0  0  0  0999 V2000
   46.0411   32.8367   28.1051 C   0  0  0  0  0  0  0  0  0  0  0  0
   45.2186   32.8557   26.9625 C   0  0  0  0  0  0  0  0  0  0  0  0
   44.4237   39.1612   37.7862 C   0  0  0  0  0  0  0  0  0  0  0  0
   45.4474   38.0506   38.0597 C   0  0  0  0  0  0  0  0  0  0  0  0
   42.2869   39.7863   36.5472 C   0  0  0  0  0  0  0  0  0  0  0  0
   41.8982   34.3811   35.0200 C   0  0  0  0  0  0  0  0  0  0  0  0
   46.2653   32.8411   30.4842 F   0  0  0  0  0  0  0  0  0  0  0  0
   45.4674   32.8173   29.3904 C   0  0  0  0  0  0  0  0  0  0  0  0
   45.7691   32.9421   25.7303 F   0  0  0  0  0  0  0  0  0  0  0  0
   43.8206   32.8043   27.1059 C   0  0  0  0  0  0  0  0  0  0  0  0
   43.2472   32.7635   28.3893 C   0  0  0  0  0  0  0  0  0  0  0  0
   44.0641   32.7942   29.5363 C   0  0  0  0  0  0  0  0  0  0  0  0
   43.4717   32.7213   30.7719 O   0  0  0  0  0  0  0  0  0  0  0  0
   43.4226   33.8040   31.6224 C   0  0  0  0  0  0  0  0  0  0  0  0
   44.0595   34.9754   31.3916 C   0  0  0  0  0  0  0  0  0  0  0  0
   44.0600   36.0392   32.3878 C   0  0  0  0  0  0  0  0  0  0  0  0
   44.7519   37.2586   32.2290 C   0  0  0  0  0  0  0  0  0  0  0  0
   44.8056   38.1772   33.2177 N   0  0  0  0  0  0  0  0  0  0  0  0
   42.6438   33.6010   32.8492 C   0  0  0  0  0  0  0  0  0  0  0  0
   42.0033   32.5674   33.0339 O   0  0  0  0  0  0  0  0  0  0  0  0
   42.6577   34.6015   33.7769 N   0  0  0  0  0  0  0  0  0  0  0  0
   43.3797   35.8272   33.6046 C   0  0  0  0  0  0  0  0  0  0  0  0
   43.4406   36.7726   34.5695 N   0  0  0  0  0  0  0  0  0  0  0  0
   44.1525   37.8755   34.3387 C   0  0  0  0  0  0  0  0  0  0  0  0
   44.2023   38.8092   35.3518 N   0  0  0  0  0  0  0  0  0  0  0  0
   43.4803   38.8165   36.6187 C   0  0  0  0  0  0  0  0  0  0  0  0
   41.2167   39.4028   35.5099 C   0  0  0  0  0  0  0  0  0  0  0  0
   40.6449   38.1463   35.8040 O   0  0  0  0  0  0  0  0  0  0  0  0
   46.2703   38.3946   39.1517 O   0  0  0  0  0  0  0  0  0  0  0  0
   47.1127   32.8745   27.9951 H   0  0  0  0  0  0  0  0  0  0  0  0
   43.8317   39.3106   38.6912 H   0  0  0  0  0  0  0  0  0  0  0  0
   44.9288   40.1086   37.6002 H   0  0  0  0  0  0  0  0  0  0  0  0
   44.9288   37.1213   38.2893 H   0  0  0  0  0  0  0  0  0  0  0  0
   46.0765   37.8714   37.1861 H   0  0  0  0  0  0  0  0  0  0  0  0
   41.8116   39.8505   37.5265 H   0  0  0  0  0  0  0  0  0  0  0  0
   42.6533   40.7882   36.3214 H   0  0  0  0  0  0  0  0  0  0  0  0
   41.8378   35.2538   35.6692 H   0  0  0  0  0  0  0  0  0  0  0  0
   40.8671   34.0979   34.8021 H   0  0  0  0  0  0  0  0  0  0  0  0
   42.3522   33.5780   35.6025 H   0  0  0  0  0  0  0  0  0  0  0  0
   43.1859   32.8094   26.2328 H   0  0  0  0  0  0  0  0  0  0  0  0
   42.1754   32.7134   28.4987 H   0  0  0  0  0  0  0  0  0  0  0  0
   44.6386   35.1480   30.4992 H   0  0  0  0  0  0  0  0  0  0  0  0
   45.2913   37.4806   31.3218 H   0  0  0  0  0  0  0  0  0  0  0  0
   44.7863   39.6160   35.1733 H   0  0  0  0  0  0  0  0  0  0  0  0
   43.0867   37.8198   36.8169 H   0  0  0  0  0  0  0  0  0  0  0  0
   40.4226   40.1484   35.5033 H   0  0  0  0  0  0  0  0  0  0  0  0
   41.6356   39.3782   34.5046 H   0  0  0  0  0  0  0  0  0  0  0  0
   41.3181   37.4863   35.7246 H   0  0  0  0  0  0  0  0  0  0  0  0
   46.7712   39.1625   38.9199 H   0  0  0  0  0  0  0  0  0  0  0  0
  1  2  1  0  0  0  0
  1  8  2  0  0  0  0
  1 30  1  0  0  0  0
  2  9  1  0  0  0  0
  2 10  2  0  0  0  0
  3  4  1  0  0  0  0
  3 26  1  0  0  0  0
  3 31  1  0  0  0  0
  3 32  1  0  0  0  0
  4 29  1  0  0  0  0
  4 33  1  0  0  0  0
  4 34  1  0  0  0  0
  5 26  1  0  0  0  0
  5 27  1  0  0  0  0
  5 35  1  0  0  0  0
  5 36  1  0  0  0  0
  6 21  1  0  0  0  0
  6 37  1  0  0  0  0
  6 38  1  0  0  0  0
  6 39  1  0  0  0  0
  7  8  1  0  0  0  0
  8 12  1  0  0  0  0
 10 11  1  0  0  0  0
 10 40  1  0  0  0  0
 11 12  2  0  0  0  0
 11 41  1  0  0  0  0
 12 13  1  0  0  0  0
 13 14  1  0  0  0  0
 14 15  2  0  0  0  0
 14 19  1  0  0  0  0
 15 16  1  0  0  0  0
 15 42  1  0  0  0  0
 16 17  1  0  0  0  0
 16 22  2  0  0  0  0
 17 18  2  0  0  0  0
 17 43  1  0  0  0  0
 18 24  1  0  0  0  0
 19 20  2  0  0  0  0
 19 21  1  0  0  0  0
 21 22  1  0  0  0  0
 22 23  1  0  0  0  0
 23 24  2  0  0  0  0
 24 25  1  0  0  0  0
 25 26  1  0  0  0  0
 25 44  1  0  0  0  0
 26 45  1  0  0  0  0
 27 28  1  0  0  0  0
 27 46  1  0  0  0  0
 27 47  1  0  0  0  0
 28 48  1  0  0  0  0
 29 49  1  0  0  0  0
M  END
>  <r_user_dG.exp>
-10.683000

$$$$
p38a_2e
  PyMOL2.3          3D                             0

 46 49  0  0  0  0  0  0  0  0999 V2000
   42.3250   39.3307   36.8840 C   0  0  0  0  0  0  0  0  0  0  0  0
   41.8162   39.2582   38.3328 C   0  0  0  0  0  0  0  0  0  0  0  0
   44.0213   39.1916   39.2074 C   0  0  0  0  0  0  0  0  0  0  0  0
   44.6441   39.2671   37.8046 C   0  0  0  0  0  0  0  0  0  0  0  0
   45.9822   32.8976   28.0582 C   0  0  0  0  0  0  0  0  0  0  0  0
   42.7619   39.8553   39.2125 O   0  0  0  0  0  0  0  0  0  0  0  0
   42.5879   33.6758   32.7594 C   0  0  0  0  0  0  0  0  0  0  0  0
   45.3477   32.9138   29.3154 C   0  0  0  0  0  0  0  0  0  0  0  0
   44.1386   37.8930   34.3650 C   0  0  0  0  0  0  0  0  0  0  0  0
   43.6961   38.6555   36.7633 C   0  0  0  0  0  0  0  0  0  0  0  0
   43.9947   36.1282   32.3469 C   0  0  0  0  0  0  0  0  0  0  0  0
   43.9375   35.1132   31.3003 C   0  0  0  0  0  0  0  0  0  0  0  0
   45.2179   32.9711   26.8778 C   0  0  0  0  0  0  0  0  0  0  0  0
   43.8157   33.0295   26.9542 C   0  0  0  0  0  0  0  0  0  0  0  0
   43.1811   33.0201   28.2087 C   0  0  0  0  0  0  0  0  0  0  0  0
   43.4063   35.8418   33.5968 C   0  0  0  0  0  0  0  0  0  0  0  0
   44.6266   37.3796   32.1963 C   0  0  0  0  0  0  0  0  0  0  0  0
   43.3024   33.9386   31.5063 C   0  0  0  0  0  0  0  0  0  0  0  0
   43.9395   32.9775   29.3940 C   0  0  0  0  0  0  0  0  0  0  0  0
   42.0985   34.3242   35.0664 C   0  0  0  0  0  0  0  0  0  0  0  0
   45.9408   32.8854   30.2175 H   0  0  0  0  0  0  0  0  0  0  0  0
   45.8262   32.9948   25.6698 F   0  0  0  0  0  0  0  0  0  0  0  0
   43.2835   32.9028   30.5961 O   0  0  0  0  0  0  0  0  0  0  0  0
   44.7061   38.2628   33.2160 N   0  0  0  0  0  0  0  0  0  0  0  0
   41.8876   32.6729   32.8931 O   0  0  0  0  0  0  0  0  0  0  0  0
   42.7267   34.5925   33.7618 N   0  0  0  0  0  0  0  0  0  0  0  0
   43.4927   36.7498   34.5953 N   0  0  0  0  0  0  0  0  0  0  0  0
   44.2255   38.7864   35.4112 N   0  0  0  0  0  0  0  0  0  0  0  0
   41.6055   38.8596   36.2130 H   0  0  0  0  0  0  0  0  0  0  0  0
   42.4075   40.3723   36.5759 H   0  0  0  0  0  0  0  0  0  0  0  0
   40.8743   39.7956   38.4266 H   0  0  0  0  0  0  0  0  0  0  0  0
   41.6283   38.2258   38.6308 H   0  0  0  0  0  0  0  0  0  0  0  0
   43.9028   38.1548   39.5267 H   0  0  0  0  0  0  0  0  0  0  0  0
   44.6753   39.6762   39.9328 H   0  0  0  0  0  0  0  0  0  0  0  0
   44.8374   40.3136   37.5701 H   0  0  0  0  0  0  0  0  0  0  0  0
   45.6055   38.7526   37.7923 H   0  0  0  0  0  0  0  0  0  0  0  0
   47.0577   32.8499   27.9984 H   0  0  0  0  0  0  0  0  0  0  0  0
   43.5837   37.5964   36.9972 H   0  0  0  0  0  0  0  0  0  0  0  0
   44.4659   35.3279   30.3847 H   0  0  0  0  0  0  0  0  0  0  0  0
   43.2264   33.0735   26.0530 H   0  0  0  0  0  0  0  0  0  0  0  0
   42.1069   33.0265   28.2624 H   0  0  0  0  0  0  0  0  0  0  0  0
   45.0929   37.6601   31.2647 H   0  0  0  0  0  0  0  0  0  0  0  0
   42.7396   34.6470   35.8872 H   0  0  0  0  0  0  0  0  0  0  0  0
   41.1557   34.8670   35.1423 H   0  0  0  0  0  0  0  0  0  0  0  0
   41.8943   33.2689   35.2531 H   0  0  0  0  0  0  0  0  0  0  0  0
   44.7410   39.6346   35.2177 H   0  0  0  0  0  0  0  0  0  0  0  0
  1  2  1  0  0  0  0
  1 10  1  0  0  0  0
  1 29  1  0  0  0  0
  1 30  1  0  0  0  0
  2  6  1  0  0  0  0
  2 31  1  0  0  0  0
  2 32  1  0  0  0  0
  3  4  1  0  0  0  0
  3  6  1  0  0  0  0
  3 33  1  0  0  0  0
  3 34  1  0  0  0  0
  4 10  1  0  0  0  0
  4 35  1  0  0  0  0
  4 36  1  0  0  0  0
  5  8  1  0  0  0  0
  5 13  2  0  0  0  0
  5 37  1  0  0  0  0
  7 18  1  0  0  0  0
  7 25  2  0  0  0  0
  7 26  1  0  0  0  0
  8 19  2  0  0  0  0
  8 21  1  0  0  0  0
  9 24  1  0  0  0  0
  9 27  2  0  0  0  0
  9 28  1  0  0  0  0
 10 28  1  0  0  0  0
 10 38  1  0  0  0  0
 11 12  1  0  0  0  0
 11 16  2  0  0  0  0
 11 17  1  0  0  0  0
 12 18  2  0  0  0  0
 12 39  1  0  0  0  0
 13 14  1  0  0  0  0
 13 22  1  0  0  0  0
 14 15  2  0  0  0  0
 14 40  1  0  0  0  0
 15 19  1  0  0  0  0
 15 41  1  0  0  0  0
 16 26  1  0  0  0  0
 16 27  1  0  0  0  0
 17 24  2  0  0  0  0
 17 42  1  0  0  0  0
 18 23  1  0  0  0  0
 19 23  1  0  0  0  0
 20 26  1  0  0  0  0
 20 43  1  0  0  0  0
 20 44  1  0  0  0  0
 20 45  1  0  0  0  0
 28 46  1  0  0  0  0
M  END
>  <r_user_dG.exp>
-10.702000

$$$$
p38a_2ee
  PyMOL2.3          3D                             0

 52 55  0  0  0  0  0  0  0  0999 V2000
   45.9822   32.8976   28.0582 C   0  0  0  0  0  0  0  0  0  0  0  0
   42.5879   33.6758   32.7594 C   0  0  0  0  0  0  0  0  0  0  0  0
   45.3477   32.9138   29.3154 C   0  0  0  0  0  0  0  0  0  0  0  0
   44.1386   37.8930   34.3650 C   0  0  0  0  0  0  0  0  0  0  0  0
   43.9947   36.1282   32.3469 C   0  0  0  0  0  0  0  0  0  0  0  0
   43.9375   35.1132   31.3003 C   0  0  0  0  0  0  0  0  0  0  0  0
   45.2179   32.9711   26.8778 C   0  0  0  0  0  0  0  0  0  0  0  0
   43.8157   33.0295   26.9542 C   0  0  0  0  0  0  0  0  0  0  0  0
   43.1811   33.0201   28.2087 C   0  0  0  0  0  0  0  0  0  0  0  0
   43.4063   35.8418   33.5968 C   0  0  0  0  0  0  0  0  0  0  0  0
   44.6266   37.3796   32.1963 C   0  0  0  0  0  0  0  0  0  0  0  0
   43.3024   33.9386   31.5063 C   0  0  0  0  0  0  0  0  0  0  0  0
   43.9395   32.9775   29.3940 C   0  0  0  0  0  0  0  0  0  0  0  0
   42.0985   34.3242   35.0664 C   0  0  0  0  0  0  0  0  0  0  0  0
   46.0798   32.8787   30.4288 F   0  0  0  0  0  0  0  0  0  0  0  0
   43.2835   32.9028   30.5961 O   0  0  0  0  0  0  0  0  0  0  0  0
   44.7061   38.2628   33.2160 N   0  0  0  0  0  0  0  0  0  0  0  0
   41.8876   32.6729   32.8931 O   0  0  0  0  0  0  0  0  0  0  0  0
   42.7267   34.5925   33.7618 N   0  0  0  0  0  0  0  0  0  0  0  0
   43.4927   36.7498   34.5953 N   0  0  0  0  0  0  0  0  0  0  0  0
   44.2255   38.7864   35.4112 N   0  0  0  0  0  0  0  0  0  0  0  0
   47.0577   32.8499   27.9984 H   0  0  0  0  0  0  0  0  0  0  0  0
   44.4659   35.3279   30.3847 H   0  0  0  0  0  0  0  0  0  0  0  0
   43.2252   33.0736   26.0510 H   0  0  0  0  0  0  0  0  0  0  0  0
   42.1024   33.0265   28.2626 H   0  0  0  0  0  0  0  0  0  0  0  0
   45.0929   37.6601   31.2647 H   0  0  0  0  0  0  0  0  0  0  0  0
   42.7396   34.6470   35.8872 H   0  0  0  0  0  0  0  0  0  0  0  0
   41.1557   34.8670   35.1423 H   0  0  0  0  0  0  0  0  0  0  0  0
   41.8943   33.2689   35.2531 H   0  0  0  0  0  0  0  0  0  0  0  0
   44.7410   39.6346   35.2177 H   0  0  0  0  0  0  0  0  0  0  0  0
   45.8174   32.9944   25.6874 F   0  0  0  0  0  0  0  0  0  0  0  0
   43.5405   39.7718   39.0236 C   0  0  0  0  0  0  0  0  0  0  0  0
   44.0438   39.9079   37.5777 C   0  0  0  0  0  0  0  0  0  0  0  0
   43.7020   38.6546   36.7560 C   0  0  0  0  0  0  0  0  0  0  0  0
   44.2708   37.3900   37.4193 C   0  0  0  0  0  0  0  0  0  0  0  0
   43.7674   37.2538   38.8652 C   0  0  0  0  0  0  0  0  0  0  0  0
   44.1093   38.5071   39.6870 N   0  0  0  0  0  0  0  0  0  0  0  0
   42.4250   39.7228   39.0258 H   0  0  0  0  0  0  0  0  0  0  0  0
   43.8283   40.6752   39.6147 H   0  0  0  0  0  0  0  0  0  0  0  0
   45.1503   40.0591   37.5820 H   0  0  0  0  0  0  0  0  0  0  0  0
   43.5933   40.8122   37.1002 H   0  0  0  0  0  0  0  0  0  0  0  0
   42.5930   38.5604   36.6659 H   0  0  0  0  0  0  0  0  0  0  0  0
   43.9832   36.4866   36.8282 H   0  0  0  0  0  0  0  0  0  0  0  0
   45.3865   37.4390   37.4171 H   0  0  0  0  0  0  0  0  0  0  0  0
   42.6612   37.1026   38.8609 H   0  0  0  0  0  0  0  0  0  0  0  0
   44.2180   36.3496   39.3427 H   0  0  0  0  0  0  0  0  0  0  0  0
   44.8381   38.3900   40.8530 C   0  0  0  0  0  0  0  0  0  0  0  0
   45.2113   37.3065   41.2349 O   0  0  0  0  0  0  0  0  0  0  0  0
   45.1656   39.6436   41.6516 C   0  0  0  0  0  0  0  0  0  0  0  0
   44.7346   40.5378   41.1354 H   0  0  0  0  0  0  0  0  0  0  0  0
   44.7270   39.5575   42.6773 H   0  0  0  0  0  0  0  0  0  0  0  0
   46.2761   39.7569   41.7291 H   0  0  0  0  0  0  0  0  0  0  0  0
  1  3  1  0  0  0  0
  1  7  2  0  0  0  0
  1 22  1  0  0  0  0
  2 12  1  0  0  0  0
  2 18  2  0  0  0  0
  2 19  1  0  0  0  0
  3 13  2  0  0  0  0
  3 15  1  0  0  0  0
  4 17  1  0  0  0  0
  4 20  2  0  0  0  0
  4 21  1  0  0  0  0
  5  6  1  0  0  0  0
  5 10  2  0  0  0  0
  5 11  1  0  0  0  0
  6 12  2  0  0  0  0
  6 23  1  0  0  0  0
  7  8  1  0  0  0  0
  7 31  1  0  0  0  0
  8  9  2  0  0  0  0
  8 24  1  0  0  0  0
  9 13  1  0  0  0  0
  9 25  1  0  0  0  0
 10 19  1  0  0  0  0
 10 20  1  0  0  0  0
 11 17  2  0  0  0  0
 11 26  1  0  0  0  0
 12 16  1  0  0  0  0
 13 16  1  0  0  0  0
 14 19  1  0  0  0  0
 14 27  1  0  0  0  0
 14 28  1  0  0  0  0
 14 29  1  0  0  0  0
 21 30  1  0  0  0  0
 21 34  1  0  0  0  0
 32 33  1  0  0  0  0
 32 37  1  0  0  0  0
 32 38  1  0  0  0  0
 32 39  1  0  0  0  0
 33 34  1  0  0  0  0
 33 40  1  0  0  0  0
 33 41  1  0  0  0  0
 34 35  1  0  0  0  0
 34 42  1  0  0  0  0
 35 36  1  0  0  0  0
 35 43  1  0  0  0  0
 35 44  1  0  0  0  0
 36 37  1  0  0  0  0
 36 45  1  0  0  0  0
 36 46  1  0  0  0  0
 37 47  1  0  0  0  0
 47 48  2  0  0  0  0
 47 49  1  0  0  0  0
 49 50  1  0  0  0  0
 49 51  1  0  0  0  0
 49 52  1  0  0  0  0
M  END
>  <r_user_dG.exp>
-12.264000

$$$$
p38a_2y
  PyMOL2.3          3D                             0

 45 47  0  0  0  0  0  0  0  0999 V2000
   45.9822   32.8976   28.0582 C   0  0  0  0  0  0  0  0  0  0  0  0
   42.5879   33.6758   32.7594 C   0  0  0  0  0  0  0  0  0  0  0  0
   45.3477   32.9138   29.3154 C   0  0  0  0  0  0  0  0  0  0  0  0
   44.1386   37.8930   34.3650 C   0  0  0  0  0  0  0  0  0  0  0  0
   43.6961   38.6555   36.7633 C   0  0  0  0  0  0  0  0  0  0  0  0
   43.9947   36.1282   32.3469 C   0  0  0  0  0  0  0  0  0  0  0  0
   43.9375   35.1132   31.3003 C   0  0  0  0  0  0  0  0  0  0  0  0
   45.2179   32.9711   26.8778 C   0  0  0  0  0  0  0  0  0  0  0  0
   43.8157   33.0295   26.9542 C   0  0  0  0  0  0  0  0  0  0  0  0
   43.1811   33.0201   28.2087 C   0  0  0  0  0  0  0  0  0  0  0  0
   43.4063   35.8418   33.5968 C   0  0  0  0  0  0  0  0  0  0  0  0
   44.6266   37.3796   32.1963 C   0  0  0  0  0  0  0  0  0  0  0  0
   43.3024   33.9386   31.5063 C   0  0  0  0  0  0  0  0  0  0  0  0
   43.9395   32.9775   29.3940 C   0  0  0  0  0  0  0  0  0  0  0  0
   42.0985   34.3242   35.0664 C   0  0  0  0  0  0  0  0  0  0  0  0
   46.0798   32.8787   30.4288 F   0  0  0  0  0  0  0  0  0  0  0  0
   43.2835   32.9028   30.5961 O   0  0  0  0  0  0  0  0  0  0  0  0
   44.7061   38.2628   33.2160 N   0  0  0  0  0  0  0  0  0  0  0  0
   41.8876   32.6729   32.8931 O   0  0  0  0  0  0  0  0  0  0  0  0
   42.7267   34.5925   33.7618 N   0  0  0  0  0  0  0  0  0  0  0  0
   43.4927   36.7498   34.5953 N   0  0  0  0  0  0  0  0  0  0  0  0
   44.2255   38.7864   35.4112 N   0  0  0  0  0  0  0  0  0  0  0  0
   47.0577   32.8499   27.9984 H   0  0  0  0  0  0  0  0  0  0  0  0
   43.5837   37.5964   36.9972 H   0  0  0  0  0  0  0  0  0  0  0  0
   44.4659   35.3279   30.3847 H   0  0  0  0  0  0  0  0  0  0  0  0
   43.2252   33.0736   26.0510 H   0  0  0  0  0  0  0  0  0  0  0  0
   42.1024   33.0265   28.2626 H   0  0  0  0  0  0  0  0  0  0  0  0
   45.0929   37.6601   31.2647 H   0  0  0  0  0  0  0  0  0  0  0  0
   42.7396   34.6470   35.8872 H   0  0  0  0  0  0  0  0  0  0  0  0
   41.1557   34.8670   35.1423 H   0  0  0  0  0  0  0  0  0  0  0  0
   41.8943   33.2689   35.2531 H   0  0  0  0  0  0  0  0  0  0  0  0
   44.7410   39.6346   35.2177 H   0  0  0  0  0  0  0  0  0  0  0  0
   45.8174   32.9944   25.6874 F   0  0  0  0  0  0  0  0  0  0  0  0
   44.6442   39.2918   37.7360 C   0  0  0  0  0  0  0  0  0  0  0  0
   42.7271   39.1511   36.8241 H   0  0  0  0  0  0  0  0  0  0  0  0
   44.0994   39.1572   39.1271 C   0  0  0  0  0  0  0  0  0  0  0  0
   45.8979   38.6512   37.6588 O   0  0  0  0  0  0  0  0  0  0  0  0
   44.8047   40.7452   37.4011 C   0  0  0  0  0  0  0  0  0  0  0  0
   46.5046   39.0585   38.2813 H   0  0  0  0  0  0  0  0  0  0  0  0
   44.7884   39.6195   39.8340 H   0  0  0  0  0  0  0  0  0  0  0  0
   43.1305   39.6527   39.1879 H   0  0  0  0  0  0  0  0  0  0  0  0
   43.9831   38.1014   39.3716 H   0  0  0  0  0  0  0  0  0  0  0  0
   45.4936   41.2075   38.1080 H   0  0  0  0  0  0  0  0  0  0  0  0
   45.2010   40.8441   36.3906 H   0  0  0  0  0  0  0  0  0  0  0  0
   43.8360   41.2415   37.4611 H   0  0  0  0  0  0  0  0  0  0  0  0
  1  3  1  0  0  0  0
  1  8  2  0  0  0  0
  1 23  1  0  0  0  0
  2 13  1  0  0  0  0
  2 19  2  0  0  0  0
  2 20  1  0  0  0  0
  3 14  2  0  0  0  0
  3 16  1  0  0  0  0
  4 18  1  0  0  0  0
  4 21  2  0  0  0  0
  4 22  1  0  0  0  0
  5 22  1  0  0  0  0
  5 24  1  0  0  0  0
  5 34  1  0  0  0  0
  5 35  1  0  0  0  0
  6  7  1  0  0  0  0
  6 11  2  0  0  0  0
  6 12  1  0  0  0  0
  7 13  2  0  0  0  0
  7 25  1  0  0  0  0
  8  9  1  0  0  0  0
  8 33  1  0  0  0  0
  9 10  2  0  0  0  0
  9 26  1  0  0  0  0
 10 14  1  0  0  0  0
 10 27  1  0  0  0  0
 11 20  1  0  0  0  0
 11 21  1  0  0  0  0
 12 18  2  0  0  0  0
 12 28  1  0  0  0  0
 13 17  1  0  0  0  0
 14 17  1  0  0  0  0
 15 20  1  0  0  0  0
 15 29  1  0  0  0  0
 15 30  1  0  0  0  0
 15 31  1  0  0  0  0
 22 32  1  0  0  0  0
 34 36  1  0  0  0  0
 34 37  1  0  0  0  0
 34 38  1  0  0  0  0
 36 40  1  0  0  0  0
 36 41  1  0  0  0  0
 36 42  1  0  0  0  0
 37 39  1  0  0  0  0
 38 43  1  0  0  0  0
 38 44  1  0  0  0  0
 38 45  1  0  0  0  0
M  END
>  <r_user_dG.exp>
-9.776000

$$$$
p38a_2i
  PyMOL2.3          3D                             0

 48 51  0  0  0  0  0  0  0  0999 V2000
   42.3250   39.3307   36.8840 C   0  0  0  0  0  0  0  0  0  0  0  0
   41.8162   39.2582   38.3328 C   0  0  0  0  0  0  0  0  0  0  0  0
   44.0213   39.1916   39.2074 C   0  0  0  0  0  0  0  0  0  0  0  0
   44.6441   39.2671   37.8046 C   0  0  0  0  0  0  0  0  0  0  0  0
   46.0420   32.8138   27.8657 C   0  0  0  0  0  0  0  0  0  0  0  0
   42.7619   39.8553   39.2125 O   0  0  0  0  0  0  0  0  0  0  0  0
   42.5879   33.6758   32.7594 C   0  0  0  0  0  0  0  0  0  0  0  0
   45.4074   32.8299   29.1229 C   0  0  0  0  0  0  0  0  0  0  0  0
   44.1386   37.8930   34.3650 C   0  0  0  0  0  0  0  0  0  0  0  0
   43.6961   38.6555   36.7633 C   0  0  0  0  0  0  0  0  0  0  0  0
   43.9947   36.1282   32.3469 C   0  0  0  0  0  0  0  0  0  0  0  0
   43.9375   35.1132   31.3003 C   0  0  0  0  0  0  0  0  0  0  0  0
   45.2777   32.8872   26.6853 C   0  0  0  0  0  0  0  0  0  0  0  0
   43.8755   32.9457   26.7617 C   0  0  0  0  0  0  0  0  0  0  0  0
   43.2409   32.9362   28.0163 C   0  0  0  0  0  0  0  0  0  0  0  0
   43.4063   35.8418   33.5968 C   0  0  0  0  0  0  0  0  0  0  0  0
   44.6266   37.3796   32.1963 C   0  0  0  0  0  0  0  0  0  0  0  0
   43.3024   33.9386   31.5063 C   0  0  0  0  0  0  0  0  0  0  0  0
   43.9993   32.8936   29.2014 C   0  0  0  0  0  0  0  0  0  0  0  0
   42.0985   34.3242   35.0664 C   0  0  0  0  0  0  0  0  0  0  0  0
   46.1395   32.7949   30.2363 F   0  0  0  0  0  0  0  0  0  0  0  0
   43.2819   32.8120   30.5162 C   0  0  0  0  0  0  0  0  0  0  0  0
   44.7061   38.2628   33.2160 N   0  0  0  0  0  0  0  0  0  0  0  0
   41.8876   32.6729   32.8931 O   0  0  0  0  0  0  0  0  0  0  0  0
   42.7267   34.5925   33.7618 N   0  0  0  0  0  0  0  0  0  0  0  0
   43.4927   36.7498   34.5953 N   0  0  0  0  0  0  0  0  0  0  0  0
   44.2255   38.7864   35.4112 N   0  0  0  0  0  0  0  0  0  0  0  0
   41.6055   38.8596   36.2130 H   0  0  0  0  0  0  0  0  0  0  0  0
   42.4075   40.3723   36.5759 H   0  0  0  0  0  0  0  0  0  0  0  0
   40.8743   39.7956   38.4266 H   0  0  0  0  0  0  0  0  0  0  0  0
   41.6283   38.2258   38.6308 H   0  0  0  0  0  0  0  0  0  0  0  0
   43.9028   38.1548   39.5267 H   0  0  0  0  0  0  0  0  0  0  0  0
   44.6753   39.6762   39.9328 H   0  0  0  0  0  0  0  0  0  0  0  0
   44.8374   40.3136   37.5701 H   0  0  0  0  0  0  0  0  0  0  0  0
   45.6055   38.7526   37.7923 H   0  0  0  0  0  0  0  0  0  0  0  0
   47.1174   32.7661   27.8060 H   0  0  0  0  0  0  0  0  0  0  0  0
   43.5837   37.5964   36.9972 H   0  0  0  0  0  0  0  0  0  0  0  0
   44.4659   35.3279   30.3847 H   0  0  0  0  0  0  0  0  0  0  0  0
   43.2850   32.9897   25.8585 H   0  0  0  0  0  0  0  0  0  0  0  0
   42.1623   32.9426   28.0701 H   0  0  0  0  0  0  0  0  0  0  0  0
   45.0929   37.6601   31.2647 H   0  0  0  0  0  0  0  0  0  0  0  0
   42.7396   34.6470   35.8872 H   0  0  0  0  0  0  0  0  0  0  0  0
   41.1557   34.8670   35.1423 H   0  0  0  0  0  0  0  0  0  0  0  0
   41.8943   33.2689   35.2531 H   0  0  0  0  0  0  0  0  0  0  0  0
   44.7410   39.6346   35.2177 H   0  0  0  0  0  0  0  0  0  0  0  0
   45.7634   32.9062   25.7209 H   0  0  0  0  0  0  0  0  0  0  0  0
   43.7115   31.9196   30.9715 H   0  0  0  0  0  0  0  0  0  0  0  0
   42.2534   32.6079   30.2184 H   0  0  0  0  0  0  0  0  0  0  0  0
  1  2  1  0  0  0  0
  1 10  1  0  0  0  0
  1 28  1  0  0  0  0
  1 29  1  0  0  0  0
  2  6  1  0  0  0  0
  2 30  1  0  0  0  0
  2 31  1  0  0  0  0
  3  4  1  0  0  0  0
  3  6  1  0  0  0  0
  3 32  1  0  0  0  0
  3 33  1  0  0  0  0
  4 10  1  0  0  0  0
  4 34  1  0  0  0  0
  4 35  1  0  0  0  0
  5  8  1  0  0  0  0
  5 13  2  0  0  0  0
  5 36  1  0  0  0  0
  7 18  1  0  0  0  0
  7 24  2  0  0  0  0
  7 25  1  0  0  0  0
  8 19  2  0  0  0  0
  8 21  1  0  0  0  0
  9 23  1  0  0  0  0
  9 26  2  0  0  0  0
  9 27  1  0  0  0  0
 10 27  1  0  0  0  0
 10 37  1  0  0  0  0
 11 12  1  0  0  0  0
 11 16  2  0  0  0  0
 11 17  1  0  0  0  0
 12 18  2  0  0  0  0
 12 38  1  0  0  0  0
 13 14  1  0  0  0  0
 13 46  1  0  0  0  0
 14 15  2  0  0  0  0
 14 39  1  0  0  0  0
 15 19  1  0  0  0  0
 15 40  1  0  0  0  0
 16 25  1  0  0  0  0
 16 26  1  0  0  0  0
 17 23  2  0  0  0  0
 17 41  1  0  0  0  0
 18 22  1  0  0  0  0
 19 22  1  0  0  0  0
 20 25  1  0  0  0  0
 20 42  1  0  0  0  0
 20 43  1  0  0  0  0
 20 44  1  0  0  0  0
 22 47  1  0  0  0  0
 22 48  1  0  0  0  0
 27 45  1  0  0  0  0
M  END
>  <r_user_dG.exp>
-10.052000

$$$$
p38a_2o
  PyMOL2.3          3D                             0

 55 58  0  0  0  0  0  0  0  0999 V2000
   45.9822   32.8976   28.0582 C   0  0  0  0  0  0  0  0  0  0  0  0
   42.5879   33.6758   32.7594 C   0  0  0  0  0  0  0  0  0  0  0  0
   45.3477   32.9138   29.3154 C   0  0  0  0  0  0  0  0  0  0  0  0
   44.1386   37.8930   34.3650 C   0  0  0  0  0  0  0  0  0  0  0  0
   43.9947   36.1282   32.3469 C   0  0  0  0  0  0  0  0  0  0  0  0
   43.9375   35.1132   31.3003 C   0  0  0  0  0  0  0  0  0  0  0  0
   45.2179   32.9711   26.8778 C   0  0  0  0  0  0  0  0  0  0  0  0
   43.8157   33.0295   26.9542 C   0  0  0  0  0  0  0  0  0  0  0  0
   43.1811   33.0201   28.2087 C   0  0  0  0  0  0  0  0  0  0  0  0
   43.4063   35.8418   33.5968 C   0  0  0  0  0  0  0  0  0  0  0  0
   44.6266   37.3796   32.1963 C   0  0  0  0  0  0  0  0  0  0  0  0
   43.3024   33.9386   31.5063 C   0  0  0  0  0  0  0  0  0  0  0  0
   43.9395   32.9775   29.3940 C   0  0  0  0  0  0  0  0  0  0  0  0
   46.0798   32.8787   30.4288 F   0  0  0  0  0  0  0  0  0  0  0  0
   43.2835   32.9028   30.5961 O   0  0  0  0  0  0  0  0  0  0  0  0
   44.7061   38.2628   33.2160 N   0  0  0  0  0  0  0  0  0  0  0  0
   41.8876   32.6729   32.8931 O   0  0  0  0  0  0  0  0  0  0  0  0
   42.7267   34.5925   33.7618 N   0  0  0  0  0  0  0  0  0  0  0  0
   43.4927   36.7498   34.5953 N   0  0  0  0  0  0  0  0  0  0  0  0
   44.2255   38.7864   35.4112 N   0  0  0  0  0  0  0  0  0  0  0  0
   47.0577   32.8499   27.9984 H   0  0  0  0  0  0  0  0  0  0  0  0
   44.4659   35.3279   30.3847 H   0  0  0  0  0  0  0  0  0  0  0  0
   43.2252   33.0736   26.0510 H   0  0  0  0  0  0  0  0  0  0  0  0
   42.1024   33.0265   28.2626 H   0  0  0  0  0  0  0  0  0  0  0  0
   45.0929   37.6601   31.2647 H   0  0  0  0  0  0  0  0  0  0  0  0
   44.7410   39.6346   35.2177 H   0  0  0  0  0  0  0  0  0  0  0  0
   45.8174   32.9944   25.6874 F   0  0  0  0  0  0  0  0  0  0  0  0
   43.5405   39.7718   39.0236 C   0  0  0  0  0  0  0  0  0  0  0  0
   44.0438   39.9079   37.5777 C   0  0  0  0  0  0  0  0  0  0  0  0
   43.7020   38.6546   36.7560 C   0  0  0  0  0  0  0  0  0  0  0  0
   44.2708   37.3900   37.4193 C   0  0  0  0  0  0  0  0  0  0  0  0
   43.7674   37.2538   38.8652 C   0  0  0  0  0  0  0  0  0  0  0  0
   44.1093   38.5071   39.6870 O   0  0  0  0  0  0  0  0  0  0  0  0
   42.4250   39.7228   39.0258 H   0  0  0  0  0  0  0  0  0  0  0  0
   43.8283   40.6752   39.6147 H   0  0  0  0  0  0  0  0  0  0  0  0
   45.1503   40.0591   37.5820 H   0  0  0  0  0  0  0  0  0  0  0  0
   43.5933   40.8122   37.1002 H   0  0  0  0  0  0  0  0  0  0  0  0
   42.5930   38.5604   36.6659 H   0  0  0  0  0  0  0  0  0  0  0  0
   43.9832   36.4866   36.8282 H   0  0  0  0  0  0  0  0  0  0  0  0
   45.3865   37.4390   37.4171 H   0  0  0  0  0  0  0  0  0  0  0  0
   42.6612   37.1026   38.8609 H   0  0  0  0  0  0  0  0  0  0  0  0
   44.2180   36.3496   39.3427 H   0  0  0  0  0  0  0  0  0  0  0  0
   42.1086   34.3285   35.0456 C   0  0  0  0  0  0  0  0  0  0  0  0
   42.3214   35.1768   35.7435 H   0  0  0  0  0  0  0  0  0  0  0  0
   41.0026   34.2237   34.9124 H   0  0  0  0  0  0  0  0  0  0  0  0
   42.6757   33.0367   35.6271 C   0  0  0  0  0  0  0  0  0  0  0  0
   42.4628   32.1884   34.9292 H   0  0  0  0  0  0  0  0  0  0  0  0
   43.7817   33.1415   35.7603 H   0  0  0  0  0  0  0  0  0  0  0  0
   42.0361   32.7641   36.9562 S   0  0  0  0  0  0  0  0  0  0  0  0
   42.3358   33.9030   37.8555 O   0  0  0  0  0  0  0  0  0  0  0  0
   42.4876   31.4329   37.4242 O   0  0  0  0  0  0  0  0  0  0  0  0
   40.5515   32.7084   36.7489 C   0  0  0  0  0  0  0  0  0  0  0  0
   40.3013   31.8537   36.0714 H   0  0  0  0  0  0  0  0  0  0  0  0
   40.0424   32.5641   37.7347 H   0  0  0  0  0  0  0  0  0  0  0  0
   40.2034   33.6657   36.2859 H   0  0  0  0  0  0  0  0  0  0  0  0
  1  3  1  0  0  0  0
  1  7  2  0  0  0  0
  1 21  1  0  0  0  0
  2 12  1  0  0  0  0
  2 17  2  0  0  0  0
  2 18  1  0  0  0  0
  3 13  2  0  0  0  0
  3 14  1  0  0  0  0
  4 16  1  0  0  0  0
  4 19  2  0  0  0  0
  4 20  1  0  0  0  0
  5  6  1  0  0  0  0
  5 10  2  0  0  0  0
  5 11  1  0  0  0  0
  6 12  2  0  0  0  0
  6 22  1  0  0  0  0
  7  8  1  0  0  0  0
  7 27  1  0  0  0  0
  8  9  2  0  0  0  0
  8 23  1  0  0  0  0
  9 13  1  0  0  0  0
  9 24  1  0  0  0  0
 10 18  1  0  0  0  0
 10 19  1  0  0  0  0
 11 16  2  0  0  0  0
 11 25  1  0  0  0  0
 12 15  1  0  0  0  0
 13 15  1  0  0  0  0
 18 43  1  0  0  0  0
 20 26  1  0  0  0  0
 20 30  1  0  0  0  0
 28 29  1  0  0  0  0
 28 33  1  0  0  0  0
 28 34  1  0  0  0  0
 28 35  1  0  0  0  0
 29 30  1  0  0  0  0
 29 36  1  0  0  0  0
 29 37  1  0  0  0  0
 30 31  1  0  0  0  0
 30 38  1  0  0  0  0
 31 32  1  0  0  0  0
 31 39  1  0  0  0  0
 31 40  1  0  0  0  0
 32 33  1  0  0  0  0
 32 41  1  0  0  0  0
 32 42  1  0  0  0  0
 43 44  1  0  0  0  0
 43 45  1  0  0  0  0
 43 46  1  0  0  0  0
 46 47  1  0  0  0  0
 46 48  1  0  0  0  0
 46 49  1  0  0  0  0
 49 50  2  0  0  0  0
 49 51  2  0  0  0  0
 49 52  1  0  0  0  0
 52 53  1  0  0  0  0
 52 54  1  0  0  0  0
 52 55  1  0  0  0  0
M  END
>  <r_user_dG.exp>
-10.491000

$$$$
p38a_2ff
  PyMOL2.3          3D                             0

 49 52  0  0  1  0  0  0  0  0999 V2000
   45.9822   32.8976   28.0582 C   0  0  0  0  0  0  0  0  0  0  0  0
   42.5879   33.6758   32.7594 C   0  0  0  0  0  0  0  0  0  0  0  0
   45.3477   32.9138   29.3154 C   0  0  0  0  0  0  0  0  0  0  0  0
   44.1386   37.8930   34.3650 C   0  0  0  0  0  0  0  0  0  0  0  0
   43.9947   36.1282   32.3469 C   0  0  0  0  0  0  0  0  0  0  0  0
   43.9375   35.1132   31.3003 C   0  0  0  0  0  0  0  0  0  0  0  0
   45.2179   32.9711   26.8778 C   0  0  0  0  0  0  0  0  0  0  0  0
   43.8157   33.0295   26.9542 C   0  0  0  0  0  0  0  0  0  0  0  0
   43.1811   33.0201   28.2087 C   0  0  0  0  0  0  0  0  0  0  0  0
   43.4063   35.8418   33.5968 C   0  0  0  0  0  0  0  0  0  0  0  0
   44.6266   37.3796   32.1963 C   0  0  0  0  0  0  0  0  0  0  0  0
   43.3024   33.9386   31.5063 C   0  0  0  0  0  0  0  0  0  0  0  0
   43.9395   32.9775   29.3940 C   0  0  0  0  0  0  0  0  0  0  0  0
   42.0985   34.3242   35.0664 C   0  0  0  0  0  0  0  0  0  0  0  0
   46.0798   32.8787   30.4288 F   0  0  0  0  0  0  0  0  0  0  0  0
   43.2835   32.9028   30.5961 O   0  0  0  0  0  0  0  0  0  0  0  0
   44.7061   38.2628   33.2160 N   0  0  0  0  0  0  0  0  0  0  0  0
   41.8876   32.6729   32.8931 O   0  0  0  0  0  0  0  0  0  0  0  0
   42.7267   34.5925   33.7618 N   0  0  0  0  0  0  0  0  0  0  0  0
   43.4927   36.7498   34.5953 N   0  0  0  0  0  0  0  0  0  0  0  0
   44.2255   38.7864   35.4112 N   0  0  0  0  0  0  0  0  0  0  0  0
   47.0577   32.8499   27.9984 H   0  0  0  0  0  0  0  0  0  0  0  0
   44.4659   35.3279   30.3847 H   0  0  0  0  0  0  0  0  0  0  0  0
   43.2252   33.0736   26.0510 H   0  0  0  0  0  0  0  0  0  0  0  0
   42.1024   33.0265   28.2626 H   0  0  0  0  0  0  0  0  0  0  0  0
   45.0929   37.6601   31.2647 H   0  0  0  0  0  0  0  0  0  0  0  0
   42.7396   34.6470   35.8872 H   0  0  0  0  0  0  0  0  0  0  0  0
   41.1557   34.8670   35.1423 H   0  0  0  0  0  0  0  0  0  0  0  0
   41.8943   33.2689   35.2531 H   0  0  0  0  0  0  0  0  0  0  0  0
   44.7410   39.6346   35.2177 H   0  0  0  0  0  0  0  0  0  0  0  0
   45.8174   32.9944   25.6874 F   0  0  0  0  0  0  0  0  0  0  0  0
   43.5405   39.7718   39.0236 C   0  0  0  0  0  0  0  0  0  0  0  0
   44.0438   39.9079   37.5777 C   0  0  0  0  0  0  0  0  0  0  0  0
   43.7020   38.6546   36.7560 C   0  0  2  0  0  0  0  0  0  0  0  0
   44.2708   37.3900   37.4193 C   0  0  0  0  0  0  0  0  0  0  0  0
   43.7674   37.2538   38.8652 C   0  0  0  0  0  0  0  0  0  0  0  0
   44.1093   38.5071   39.6870 C   0  0  2  0  0  0  0  0  0  0  0  0
   42.4250   39.7228   39.0258 H   0  0  0  0  0  0  0  0  0  0  0  0
   43.8283   40.6752   39.6147 H   0  0  0  0  0  0  0  0  0  0  0  0
   45.1503   40.0591   37.5820 H   0  0  0  0  0  0  0  0  0  0  0  0
   43.5933   40.8122   37.1002 H   0  0  0  0  0  0  0  0  0  0  0  0
   42.5930   38.5604   36.6659 H   0  0  0  0  0  0  0  0  0  0  0  0
   43.9832   36.4866   36.8282 H   0  0  0  0  0  0  0  0  0  0  0  0
   45.3865   37.4390   37.4171 H   0  0  0  0  0  0  0  0  0  0  0  0
   42.6612   37.1026   38.8609 H   0  0  0  0  0  0  0  0  0  0  0  0
   44.2180   36.3496   39.3427 H   0  0  0  0  0  0  0  0  0  0  0  0
   45.2183   38.6014   39.7771 H   0  0  0  0  0  0  0  0  0  0  0  0
   43.5999   38.3789   40.9955 O   0  0  0  0  0  0  0  0  0  0  0  0
   43.9593   37.5875   41.4032 H   0  0  0  0  0  0  0  0  0  0  0  0
  1  3  1  0  0  0  0
  1  7  2  0  0  0  0
  1 22  1  0  0  0  0
  2 12  1  0  0  0  0
  2 18  2  0  0  0  0
  2 19  1  0  0  0  0
  3 13  2  0  0  0  0
  3 15  1  0  0  0  0
  4 17  1  0  0  0  0
  4 20  2  0  0  0  0
  4 21  1  0  0  0  0
  5  6  1  0  0  0  0
  5 10  2  0  0  0  0
  5 11  1  0  0  0  0
  6 12  2  0  0  0  0
  6 23  1  0  0  0  0
  7  8  1  0  0  0  0
  7 31  1  0  0  0  0
  8  9  2  0  0  0  0
  8 24  1  0  0  0  0
  9 13  1  0  0  0  0
  9 25  1  0  0  0  0
 10 19  1  0  0  0  0
 10 20  1  0  0  0  0
 11 17  2  0  0  0  0
 11 26  1  0  0  0  0
 12 16  1  0  0  0  0
 13 16  1  0  0  0  0
 14 19  1  0  0  0  0
 14 27  1  0  0  0  0
 14 28  1  0  0  0  0
 14 29  1  0  0  0  0
 21 30  1  0  0  0  0
 21 34  1  0  0  0  0
 32 33  1  0  0  0  0
 32 37  1  0  0  0  0
 32 38  1  0  0  0  0
 32 39  1  0  0  0  0
 33 34  1  0  0  0  0
 33 40  1  0  0  0  0
 33 41  1  0  0  0  0
 34 35  1  0  0  0  0
 34 42  1  0  0  0  0
 35 36  1  0  0  0  0
 35 43  1  0  0  0  0
 35 44  1  0  0  0  0
 36 37  1  0  0  0  0
 36 45  1  0  0  0  0
 36 46  1  0  0  0  0
 37 47  1  0  0  0  0
 37 48  1  0  0  0  0
 48 49  1  0  0  0  0
M  END
>  <r_user_dG.exp>
-11.443000

$$$$
p38a_2m
  PyMOL2.3          3D                             0

 50 54  0  0  0  0  0  0  0  0999 V2000
   45.9822   32.8976   28.0582 C   0  0  0  0  0  0  0  0  0  0  0  0
   42.5879   33.6758   32.7594 C   0  0  0  0  0  0  0  0  0  0  0  0
   45.3477   32.9138   29.3154 C   0  0  0  0  0  0  0  0  0  0  0  0
   44.1386   37.8930   34.3650 C   0  0  0  0  0  0  0  0  0  0  0  0
   43.9947   36.1282   32.3469 C   0  0  0  0  0  0  0  0  0  0  0  0
   43.9375   35.1132   31.3003 C   0  0  0  0  0  0  0  0  0  0  0  0
   45.2179   32.9711   26.8778 C   0  0  0  0  0  0  0  0  0  0  0  0
   43.8157   33.0295   26.9542 C   0  0  0  0  0  0  0  0  0  0  0  0
   43.1811   33.0201   28.2087 C   0  0  0  0  0  0  0  0  0  0  0  0
   43.4063   35.8418   33.5968 C   0  0  0  0  0  0  0  0  0  0  0  0
   44.6266   37.3796   32.1963 C   0  0  0  0  0  0  0  0  0  0  0  0
   43.3024   33.9386   31.5063 C   0  0  0  0  0  0  0  0  0  0  0  0
   43.9395   32.9775   29.3940 C   0  0  0  0  0  0  0  0  0  0  0  0
   46.0798   32.8787   30.4288 F   0  0  0  0  0  0  0  0  0  0  0  0
   43.2835   32.9028   30.5961 O   0  0  0  0  0  0  0  0  0  0  0  0
   44.7061   38.2628   33.2160 N   0  0  0  0  0  0  0  0  0  0  0  0
   41.8876   32.6729   32.8931 O   0  0  0  0  0  0  0  0  0  0  0  0
   42.7267   34.5925   33.7618 N   0  0  0  0  0  0  0  0  0  0  0  0
   43.4927   36.7498   34.5953 N   0  0  0  0  0  0  0  0  0  0  0  0
   44.2255   38.7864   35.4112 N   0  0  0  0  0  0  0  0  0  0  0  0
   47.0577   32.8499   27.9984 H   0  0  0  0  0  0  0  0  0  0  0  0
   44.4659   35.3279   30.3847 H   0  0  0  0  0  0  0  0  0  0  0  0
   43.2252   33.0736   26.0510 H   0  0  0  0  0  0  0  0  0  0  0  0
   42.1024   33.0265   28.2626 H   0  0  0  0  0  0  0  0  0  0  0  0
   45.0929   37.6601   31.2647 H   0  0  0  0  0  0  0  0  0  0  0  0
   44.7410   39.6346   35.2177 H   0  0  0  0  0  0  0  0  0  0  0  0
   45.8174   32.9944   25.6874 F   0  0  0  0  0  0  0  0  0  0  0  0
   43.5405   39.7718   39.0236 C   0  0  0  0  0  0  0  0  0  0  0  0
   44.0438   39.9079   37.5777 C   0  0  0  0  0  0  0  0  0  0  0  0
   43.7020   38.6546   36.7560 C   0  0  0  0  0  0  0  0  0  0  0  0
   44.2708   37.3900   37.4193 C   0  0  0  0  0  0  0  0  0  0  0  0
   43.7674   37.2538   38.8652 C   0  0  0  0  0  0  0  0  0  0  0  0
   44.1093   38.5071   39.6870 O   0  0  0  0  0  0  0  0  0  0  0  0
   42.4250   39.7228   39.0258 H   0  0  0  0  0  0  0  0  0  0  0  0
   43.8283   40.6752   39.6147 H   0  0  0  0  0  0  0  0  0  0  0  0
   45.1503   40.0591   37.5820 H   0  0  0  0  0  0  0  0  0  0  0  0
   43.5933   40.8122   37.1002 H   0  0  0  0  0  0  0  0  0  0  0  0
   42.5930   38.5604   36.6659 H   0  0  0  0  0  0  0  0  0  0  0  0
   43.9832   36.4866   36.8282 H   0  0  0  0  0  0  0  0  0  0  0  0
   45.3865   37.4390   37.4171 H   0  0  0  0  0  0  0  0  0  0  0  0
   42.6612   37.1026   38.8609 H   0  0  0  0  0  0  0  0  0  0  0  0
   44.2180   36.3496   39.3427 H   0  0  0  0  0  0  0  0  0  0  0  0
   42.1086   34.3285   35.0456 C   0  0  0  0  0  0  0  0  0  0  0  0
   42.3046   35.3843   36.1016 C   0  0  0  0  0  0  0  0  0  0  0  0
   43.0518   34.0799   36.1930 C   0  0  0  0  0  0  0  0  0  0  0  0
   41.1401   33.7763   35.0809 H   0  0  0  0  0  0  0  0  0  0  0  0
   42.9077   36.2722   35.7982 H   0  0  0  0  0  0  0  0  0  0  0  0
   41.4634   35.5168   36.8216 H   0  0  0  0  0  0  0  0  0  0  0  0
   44.1393   34.1217   35.9491 H   0  0  0  0  0  0  0  0  0  0  0  0
   42.6951   33.3664   36.9725 H   0  0  0  0  0  0  0  0  0  0  0  0
  1  3  1  0  0  0  0
  1  7  2  0  0  0  0
  1 21  1  0  0  0  0
  2 12  1  0  0  0  0
  2 17  2  0  0  0  0
  2 18  1  0  0  0  0
  3 13  2  0  0  0  0
  3 14  1  0  0  0  0
  4 16  1  0  0  0  0
  4 19  2  0  0  0  0
  4 20  1  0  0  0  0
  5  6  1  0  0  0  0
  5 10  2  0  0  0  0
  5 11  1  0  0  0  0
  6 12  2  0  0  0  0
  6 22  1  0  0  0  0
  7  8  1  0  0  0  0
  7 27  1  0  0  0  0
  8  9  2  0  0  0  0
  8 23  1  0  0  0  0
  9 13  1  0  0  0  0
  9 24  1  0  0  0  0
 10 18  1  0  0  0  0
 10 19  1  0  0  0  0
 11 16  2  0  0  0  0
 11 25  1  0  0  0  0
 12 15  1  0  0  0  0
 13 15  1  0  0  0  0
 18 43  1  0  0  0  0
 20 26  1  0  0  0  0
 20 30  1  0  0  0  0
 28 29  1  0  0  0  0
 28 33  1  0  0  0  0
 28 34  1  0  0  0  0
 28 35  1  0  0  0  0
 29 30  1  0  0  0  0
 29 36  1  0  0  0  0
 29 37  1  0  0  0  0
 30 31  1  0  0  0  0
 30 38  1  0  0  0  0
 31 32  1  0  0  0  0
 31 39  1  0  0  0  0
 31 40  1  0  0  0  0
 32 33  1  0  0  0  0
 32 41  1  0  0  0  0
 32 42  1  0  0  0  0
 43 44  1  0  0  0  0
 43 45  1  0  0  0  0
 43 46  1  0  0  0  0
 44 45  1  0  0  0  0
 44 47  1  0  0  0  0
 44 48  1  0  0  0  0
 45 49  1  0  0  0  0
 45 50  1  0  0  0  0
M  END
>  <r_user_dG.exp>
-10.963000

$$$$
