18629-1
  PyMOL2.3          3D                             0

 41 42  0  0  0  0  0  0  0  0999 V2000
   36.3737   26.9159   49.6990 C   0  0  0  0  0  0  0  0  0  0  0  0
   35.2776   25.9812   49.1818 C   0  0  0  0  0  0  0  0  0  0  0  0
   34.0380   26.6820   49.2513 O   0  0  0  0  0  0  0  0  0  0  0  0
   32.8674   26.0383   48.8885 C   0  0  0  0  0  0  0  0  0  0  0  0
   32.9686   24.7468   48.4710 N   0  0  0  0  0  0  0  0  0  0  0  0
   31.8518   24.1136   48.0850 C   0  0  0  0  0  0  0  0  0  0  0  0
   30.5956   24.6980   48.1210 C   0  0  0  0  0  0  0  0  0  0  0  0
   30.4934   26.0080   48.5510 C   0  0  0  0  0  0  0  0  0  0  0  0
   29.2090   26.5367   48.5481 N   0  0  0  0  0  0  0  0  0  0  0  0
   31.6422   26.7131   48.9459 C   0  0  0  0  0  0  0  0  0  0  0  0
   31.6084   28.0997   49.3973 C   0  0  0  0  0  0  0  0  0  0  0  0
   31.5906   29.2002   49.7573 N   0  0  0  0  0  0  0  0  0  0  0  0
   32.1178   22.8152   47.7061 N   0  0  0  0  0  0  0  0  0  0  0  0
   31.4285   22.0005   46.9009 C   0  0  0  0  0  0  0  0  0  0  0  0
   30.4159   22.3495   46.2969 O   0  0  0  0  0  0  0  0  0  0  0  0
   31.9372   20.5636   46.7114 C   0  0  0  0  0  0  0  0  0  0  0  0
   33.1270   20.1673   47.5863 C   0  0  0  0  0  0  0  0  0  0  0  0
   34.3805   20.7665   47.4053 C   0  0  0  0  0  0  0  0  0  0  0  0
   35.4475   20.4382   48.2442 C   0  0  0  0  0  0  0  0  0  0  0  0
   36.7910   21.1217   48.0843 C   0  0  0  0  0  0  0  0  0  0  0  0
   35.2719   19.4772   49.2413 C   0  0  0  0  0  0  0  0  0  0  0  0
   34.0325   18.8611   49.4119 C   0  0  0  0  0  0  0  0  0  0  0  0
   32.9618   19.2081   48.5893 C   0  0  0  0  0  0  0  0  0  0  0  0
   37.3485   26.4303   49.6675 H   0  0  0  0  0  0  0  0  0  0  0  0
   36.4304   27.8182   49.0898 H   0  0  0  0  0  0  0  0  0  0  0  0
   36.1781   27.2188   50.7272 H   0  0  0  0  0  0  0  0  0  0  0  0
   35.4897   25.6831   48.1527 H   0  0  0  0  0  0  0  0  0  0  0  0
   35.2446   25.0757   49.7921 H   0  0  0  0  0  0  0  0  0  0  0  0
   29.7168   24.1519   47.8212 H   0  0  0  0  0  0  0  0  0  0  0  0
   28.4173   25.9389   48.3299 H   0  0  0  0  0  0  0  0  0  0  0  0
   29.0533   27.5163   48.7752 H   0  0  0  0  0  0  0  0  0  0  0  0
   32.9646   22.4667   48.1193 H   0  0  0  0  0  0  0  0  0  0  0  0
   31.1004   19.8919   46.8978 H   0  0  0  0  0  0  0  0  0  0  0  0
   32.2034   20.4367   45.6662 H   0  0  0  0  0  0  0  0  0  0  0  0
   34.5200   21.5028   46.6255 H   0  0  0  0  0  0  0  0  0  0  0  0
   36.6980   22.0771   47.5676 H   0  0  0  0  0  0  0  0  0  0  0  0
   37.2441   21.3188   49.0572 H   0  0  0  0  0  0  0  0  0  0  0  0
   37.4701   20.4869   47.5148 H   0  0  0  0  0  0  0  0  0  0  0  0
   36.0950   19.2134   49.8907 H   0  0  0  0  0  0  0  0  0  0  0  0
   33.9008   18.1186   50.1863 H   0  0  0  0  0  0  0  0  0  0  0  0
   32.0053   18.7255   48.7348 H   0  0  0  0  0  0  0  0  0  0  0  0
  1  2  1  0  0  0  0
  1 24  1  0  0  0  0
  1 25  1  0  0  0  0
  1 26  1  0  0  0  0
  2  3  1  0  0  0  0
  2 27  1  0  0  0  0
  2 28  1  0  0  0  0
  3  4  1  0  0  0  0
  4 10  1  0  0  0  0
  4  5  2  0  0  0  0
  5  6  1  0  0  0  0
  6  7  2  0  0  0  0
  6 13  1  0  0  0  0
  7  8  1  0  0  0  0
  7 29  1  0  0  0  0
  8  9  1  0  0  0  0
  8 10  2  0  0  0  0
  9 30  1  0  0  0  0
  9 31  1  0  0  0  0
 10 11  1  0  0  0  0
 11 12  3  0  0  0  0
 13 14  1  0  0  0  0
 13 32  1  0  0  0  0
 14 15  2  0  0  0  0
 14 16  1  0  0  0  0
 16 17  1  0  0  0  0
 16 33  1  0  0  0  0
 16 34  1  0  0  0  0
 17 23  1  0  0  0  0
 17 18  2  0  0  0  0
 18 19  1  0  0  0  0
 18 35  1  0  0  0  0
 19 20  1  0  0  0  0
 19 21  2  0  0  0  0
 20 36  1  0  0  0  0
 20 37  1  0  0  0  0
 20 38  1  0  0  0  0
 21 22  1  0  0  0  0
 21 39  1  0  0  0  0
 22 23  2  0  0  0  0
 22 40  1  0  0  0  0
 23 41  1  0  0  0  0
M  END
>  <i_m_stars>
0

>  <r_user_dG.exp>
-8.673770

$$$$
18634-1
  PyMOL2.3          3D                             0

 46 47  0  0  0  0  0  0  0  0999 V2000
   36.4687   27.0935   49.7363 C   0  0  0  0  0  0  0  0  0  0  0  0
   35.4032   26.1592   49.1581 C   0  0  0  0  0  0  0  0  0  0  0  0
   34.1416   26.8100   49.2802 O   0  0  0  0  0  0  0  0  0  0  0  0
   32.9870   26.1424   48.9095 C   0  0  0  0  0  0  0  0  0  0  0  0
   33.1212   24.8686   48.4489 N   0  0  0  0  0  0  0  0  0  0  0  0
   32.0171   24.2115   48.0617 C   0  0  0  0  0  0  0  0  0  0  0  0
   30.7427   24.7541   48.1474 C   0  0  0  0  0  0  0  0  0  0  0  0
   30.6091   26.0497   48.6128 C   0  0  0  0  0  0  0  0  0  0  0  0
   29.3111   26.5450   48.6446 N   0  0  0  0  0  0  0  0  0  0  0  0
   31.7444   26.7795   49.0000 C   0  0  0  0  0  0  0  0  0  0  0  0
   31.6807   28.1590   49.4682 C   0  0  0  0  0  0  0  0  0  0  0  0
   31.6402   29.2545   49.8398 N   0  0  0  0  0  0  0  0  0  0  0  0
   32.3350   22.9567   47.5842 N   0  0  0  0  0  0  0  0  0  0  0  0
   31.5963   22.0723   46.9080 C   0  0  0  0  0  0  0  0  0  0  0  0
   30.4335   22.2577   46.5540 O   0  0  0  0  0  0  0  0  0  0  0  0
   32.3065   20.7878   46.4971 C   0  0  0  0  0  0  0  0  0  0  0  0
   32.9445   20.0422   47.6662 C   0  0  0  0  0  0  0  0  0  0  0  0
   34.2112   20.4096   48.1472 C   0  0  0  0  0  0  0  0  0  0  0  0
   34.8331   21.4933   47.5541 O   0  0  0  0  0  0  0  0  0  0  0  0
   35.9556   22.0890   48.2017 C   0  0  0  0  0  0  0  0  0  0  0  0
   34.7722   19.6736   49.2000 C   0  0  0  0  0  0  0  0  0  0  0  0
   34.0582   18.6381   49.8041 C   0  0  0  0  0  0  0  0  0  0  0  0
   32.7729   18.3042   49.3560 C   0  0  0  0  0  0  0  0  0  0  0  0
   32.2428   18.9949   48.2701 C   0  0  0  0  0  0  0  0  0  0  0  0
   31.9750   17.3304   49.9182 O   0  0  0  0  0  0  0  0  0  0  0  0
   32.3799   16.7274   51.1425 C   0  0  0  0  0  0  0  0  0  0  0  0
   37.4625   26.6543   49.6513 H   0  0  0  0  0  0  0  0  0  0  0  0
   36.4778   28.0460   49.2052 H   0  0  0  0  0  0  0  0  0  0  0  0
   36.2780   27.3004   50.7895 H   0  0  0  0  0  0  0  0  0  0  0  0
   35.6165   25.9413   48.1090 H   0  0  0  0  0  0  0  0  0  0  0  0
   35.4077   25.2131   49.7048 H   0  0  0  0  0  0  0  0  0  0  0  0
   29.8718   24.1969   47.8464 H   0  0  0  0  0  0  0  0  0  0  0  0
   29.1382   27.5231   48.8647 H   0  0  0  0  0  0  0  0  0  0  0  0
   28.5328   25.9431   48.3947 H   0  0  0  0  0  0  0  0  0  0  0  0
   33.2949   22.7107   47.7691 H   0  0  0  0  0  0  0  0  0  0  0  0
   31.6233   20.1322   45.9625 H   0  0  0  0  0  0  0  0  0  0  0  0
   33.0745   21.0854   45.7918 H   0  0  0  0  0  0  0  0  0  0  0  0
   36.8197   21.4230   48.2005 H   0  0  0  0  0  0  0  0  0  0  0  0
   36.2408   22.9945   47.6662 H   0  0  0  0  0  0  0  0  0  0  0  0
   35.7250   22.3772   49.2294 H   0  0  0  0  0  0  0  0  0  0  0  0
   35.7561   19.9079   49.5771 H   0  0  0  0  0  0  0  0  0  0  0  0
   34.5124   18.1098   50.6282 H   0  0  0  0  0  0  0  0  0  0  0  0
   31.2676   18.7057   47.9066 H   0  0  0  0  0  0  0  0  0  0  0  0
   33.3003   16.1544   51.0222 H   0  0  0  0  0  0  0  0  0  0  0  0
   32.5192   17.4693   51.9303 H   0  0  0  0  0  0  0  0  0  0  0  0
   31.6056   16.0369   51.4766 H   0  0  0  0  0  0  0  0  0  0  0  0
  1  2  1  0  0  0  0
  1 27  1  0  0  0  0
  1 28  1  0  0  0  0
  1 29  1  0  0  0  0
  2  3  1  0  0  0  0
  2 30  1  0  0  0  0
  2 31  1  0  0  0  0
  3  4  1  0  0  0  0
  4 10  1  0  0  0  0
  4  5  2  0  0  0  0
  5  6  1  0  0  0  0
  6  7  2  0  0  0  0
  6 13  1  0  0  0  0
  7  8  1  0  0  0  0
  7 32  1  0  0  0  0
  8  9  1  0  0  0  0
  8 10  2  0  0  0  0
  9 33  1  0  0  0  0
  9 34  1  0  0  0  0
 10 11  1  0  0  0  0
 11 12  3  0  0  0  0
 13 14  1  0  0  0  0
 13 35  1  0  0  0  0
 14 15  2  0  0  0  0
 14 16  1  0  0  0  0
 16 17  1  0  0  0  0
 16 36  1  0  0  0  0
 16 37  1  0  0  0  0
 17 24  1  0  0  0  0
 17 18  2  0  0  0  0
 18 19  1  0  0  0  0
 18 21  1  0  0  0  0
 19 20  1  0  0  0  0
 20 38  1  0  0  0  0
 20 39  1  0  0  0  0
 20 40  1  0  0  0  0
 21 22  2  0  0  0  0
 21 41  1  0  0  0  0
 22 23  1  0  0  0  0
 22 42  1  0  0  0  0
 23 24  2  0  0  0  0
 23 25  1  0  0  0  0
 24 43  1  0  0  0  0
 25 26  1  0  0  0  0
 26 44  1  0  0  0  0
 26 45  1  0  0  0  0
 26 46  1  0  0  0  0
M  END
>  <i_m_stars>
0

>  <r_user_dG.exp>
-9.993231

$$$$
18628-1
  PyMOL2.3          3D                             0

 41 42  0  0  0  0  0  0  0  0999 V2000
   36.3219   27.0559   49.7025 C   0  0  0  0  0  0  0  0  0  0  0  0
   35.2489   26.0925   49.1895 C   0  0  0  0  0  0  0  0  0  0  0  0
   33.9920   26.7622   49.2571 O   0  0  0  0  0  0  0  0  0  0  0  0
   32.8374   26.0880   48.8971 C   0  0  0  0  0  0  0  0  0  0  0  0
   32.9690   24.7934   48.5021 N   0  0  0  0  0  0  0  0  0  0  0  0
   31.8704   24.1296   48.1177 C   0  0  0  0  0  0  0  0  0  0  0  0
   30.6013   24.6864   48.1262 C   0  0  0  0  0  0  0  0  0  0  0  0
   30.4674   26.0020   48.5357 C   0  0  0  0  0  0  0  0  0  0  0  0
   29.1739   26.5088   48.5113 N   0  0  0  0  0  0  0  0  0  0  0  0
   31.5979   26.7363   48.9337 C   0  0  0  0  0  0  0  0  0  0  0  0
   31.5358   28.1276   49.3666 C   0  0  0  0  0  0  0  0  0  0  0  0
   31.4979   29.2321   49.7120 N   0  0  0  0  0  0  0  0  0  0  0  0
   32.1815   22.8327   47.7764 N   0  0  0  0  0  0  0  0  0  0  0  0
   31.5316   21.9542   47.0077 C   0  0  0  0  0  0  0  0  0  0  0  0
   30.4861   22.2194   46.4177 O   0  0  0  0  0  0  0  0  0  0  0  0
   32.1431   20.5502   46.8503 C   0  0  0  0  0  0  0  0  0  0  0  0
   33.5290   20.3591   47.5000 C   0  0  0  0  0  0  0  0  0  0  0  0
   33.7607   19.4214   48.5255 C   0  0  0  0  0  0  0  0  0  0  0  0
   32.6666   18.5066   49.0470 C   0  0  0  0  0  0  0  0  0  0  0  0
   35.0280   19.3310   49.1104 C   0  0  0  0  0  0  0  0  0  0  0  0
   36.0669   20.1558   48.6872 C   0  0  0  0  0  0  0  0  0  0  0  0
   35.8512   21.0679   47.6600 C   0  0  0  0  0  0  0  0  0  0  0  0
   34.5953   21.1587   47.0639 C   0  0  0  0  0  0  0  0  0  0  0  0
   36.1197   27.3575   50.7298 H   0  0  0  0  0  0  0  0  0  0  0  0
   37.3085   26.5945   49.6725 H   0  0  0  0  0  0  0  0  0  0  0  0
   36.3559   27.9573   49.0903 H   0  0  0  0  0  0  0  0  0  0  0  0
   35.4675   25.7959   48.1613 H   0  0  0  0  0  0  0  0  0  0  0  0
   35.2396   25.1887   49.8030 H   0  0  0  0  0  0  0  0  0  0  0  0
   29.7394   24.1149   47.8253 H   0  0  0  0  0  0  0  0  0  0  0  0
   29.0018   27.4859   48.7374 H   0  0  0  0  0  0  0  0  0  0  0  0
   28.3911   25.8925   48.3112 H   0  0  0  0  0  0  0  0  0  0  0  0
   33.0612   22.5481   48.1705 H   0  0  0  0  0  0  0  0  0  0  0  0
   31.4070   19.8411   47.2222 H   0  0  0  0  0  0  0  0  0  0  0  0
   32.2304   20.3491   45.7850 H   0  0  0  0  0  0  0  0  0  0  0  0
   32.1613   17.9844   48.2338 H   0  0  0  0  0  0  0  0  0  0  0  0
   33.0578   17.7437   49.7211 H   0  0  0  0  0  0  0  0  0  0  0  0
   31.9441   19.0971   49.6037 H   0  0  0  0  0  0  0  0  0  0  0  0
   35.2115   18.6235   49.9067 H   0  0  0  0  0  0  0  0  0  0  0  0
   37.0395   20.0876   49.1555 H   0  0  0  0  0  0  0  0  0  0  0  0
   36.6607   21.7047   47.3336 H   0  0  0  0  0  0  0  0  0  0  0  0
   34.4388   21.8754   46.2703 H   0  0  0  0  0  0  0  0  0  0  0  0
  1  2  1  0  0  0  0
  1 24  1  0  0  0  0
  1 25  1  0  0  0  0
  1 26  1  0  0  0  0
  2  3  1  0  0  0  0
  2 27  1  0  0  0  0
  2 28  1  0  0  0  0
  3  4  1  0  0  0  0
  4 10  1  0  0  0  0
  4  5  2  0  0  0  0
  5  6  1  0  0  0  0
  6  7  2  0  0  0  0
  6 13  1  0  0  0  0
  7  8  1  0  0  0  0
  7 29  1  0  0  0  0
  8  9  1  0  0  0  0
  8 10  2  0  0  0  0
  9 30  1  0  0  0  0
  9 31  1  0  0  0  0
 10 11  1  0  0  0  0
 11 12  3  0  0  0  0
 13 14  1  0  0  0  0
 13 32  1  0  0  0  0
 14 15  2  0  0  0  0
 14 16  1  0  0  0  0
 16 17  1  0  0  0  0
 16 33  1  0  0  0  0
 16 34  1  0  0  0  0
 17 23  1  0  0  0  0
 17 18  2  0  0  0  0
 18 19  1  0  0  0  0
 18 20  1  0  0  0  0
 19 35  1  0  0  0  0
 19 36  1  0  0  0  0
 19 37  1  0  0  0  0
 20 21  2  0  0  0  0
 20 38  1  0  0  0  0
 21 22  1  0  0  0  0
 21 39  1  0  0  0  0
 22 23  2  0  0  0  0
 22 40  1  0  0  0  0
 23 41  1  0  0  0  0
M  END
>  <i_m_stars>
0

>  <r_user_dG.exp>
-8.702592

$$$$
18660-1
  PyMOL2.3          3D                             0

 52 53  0  0  0  0  0  0  0  0999 V2000
   35.0363   29.4532   48.1417 C   0  0  0  0  0  0  0  0  0  0  0  0
   36.4529   28.4728   48.7489 S   0  0  0  0  0  0  0  0  0  0  0  0
   37.6678   29.0206   48.1280 O   0  0  0  0  0  0  0  0  0  0  0  0
   36.3499   28.3731   50.2099 O   0  0  0  0  0  0  0  0  0  0  0  0
   36.1517   26.8018   48.0693 C   0  0  0  0  0  0  0  0  0  0  0  0
   35.2909   25.9573   49.0119 C   0  0  0  0  0  0  0  0  0  0  0  0
   34.0253   26.6099   49.1667 O   0  0  0  0  0  0  0  0  0  0  0  0
   32.8415   25.9620   48.8705 C   0  0  0  0  0  0  0  0  0  0  0  0
   32.9382   24.6754   48.4634 N   0  0  0  0  0  0  0  0  0  0  0  0
   31.8306   24.0347   48.0940 C   0  0  0  0  0  0  0  0  0  0  0  0
   30.5672   24.6055   48.1381 C   0  0  0  0  0  0  0  0  0  0  0  0
   30.4623   25.9198   48.5639 C   0  0  0  0  0  0  0  0  0  0  0  0
   29.1804   26.4575   48.5553 N   0  0  0  0  0  0  0  0  0  0  0  0
   31.6133   26.6299   48.9486 C   0  0  0  0  0  0  0  0  0  0  0  0
   31.5786   28.0156   49.4003 C   0  0  0  0  0  0  0  0  0  0  0  0
   31.5621   29.1161   49.7598 N   0  0  0  0  0  0  0  0  0  0  0  0
   32.1599   22.7714   47.6697 N   0  0  0  0  0  0  0  0  0  0  0  0
   31.5020   21.9515   46.8584 C   0  0  0  0  0  0  0  0  0  0  0  0
   30.4102   22.2165   46.3637 O   0  0  0  0  0  0  0  0  0  0  0  0
   32.2285   20.6674   46.4716 C   0  0  0  0  0  0  0  0  0  0  0  0
   32.7727   19.8697   47.6559 C   0  0  0  0  0  0  0  0  0  0  0  0
   33.9956   20.2165   48.2524 C   0  0  0  0  0  0  0  0  0  0  0  0
   34.6581   21.3214   47.7483 O   0  0  0  0  0  0  0  0  0  0  0  0
   35.8851   21.7394   48.3411 C   0  0  0  0  0  0  0  0  0  0  0  0
   34.4712   19.4384   49.3173 C   0  0  0  0  0  0  0  0  0  0  0  0
   33.7277   18.3589   49.7951 C   0  0  0  0  0  0  0  0  0  0  0  0
   32.5136   18.0120   49.2087 C   0  0  0  0  0  0  0  0  0  0  0  0
   32.0443   18.7753   48.1322 C   0  0  0  0  0  0  0  0  0  0  0  0
   31.8478   16.9308   49.7464 O   0  0  0  0  0  0  0  0  0  0  0  0
   30.8337   16.2931   48.9734 C   0  0  0  0  0  0  0  0  0  0  0  0
   35.0110   29.4160   47.0553 H   0  0  0  0  0  0  0  0  0  0  0  0
   34.1161   29.0414   48.5456 H   0  0  0  0  0  0  0  0  0  0  0  0
   35.1472   30.4796   48.4831 H   0  0  0  0  0  0  0  0  0  0  0  0
   35.7040   26.9024   47.0837 H   0  0  0  0  0  0  0  0  0  0  0  0
   37.1265   26.3385   47.9345 H   0  0  0  0  0  0  0  0  0  0  0  0
   35.2727   24.9354   48.6322 H   0  0  0  0  0  0  0  0  0  0  0  0
   35.7535   25.8780   49.9968 H   0  0  0  0  0  0  0  0  0  0  0  0
   29.6929   24.0556   47.8344 H   0  0  0  0  0  0  0  0  0  0  0  0
   29.0322   27.4379   48.7813 H   0  0  0  0  0  0  0  0  0  0  0  0
   28.3828   25.8618   48.3494 H   0  0  0  0  0  0  0  0  0  0  0  0
   33.0872   22.4989   47.9568 H   0  0  0  0  0  0  0  0  0  0  0  0
   31.5871   20.0391   45.8626 H   0  0  0  0  0  0  0  0  0  0  0  0
   33.0524   20.9783   45.8383 H   0  0  0  0  0  0  0  0  0  0  0  0
   36.6512   20.9654   48.2730 H   0  0  0  0  0  0  0  0  0  0  0  0
   36.2593   22.6147   47.8102 H   0  0  0  0  0  0  0  0  0  0  0  0
   35.7528   22.0250   49.3855 H   0  0  0  0  0  0  0  0  0  0  0  0
   35.4146   19.6601   49.7916 H   0  0  0  0  0  0  0  0  0  0  0  0
   34.0959   17.7721   50.6242 H   0  0  0  0  0  0  0  0  0  0  0  0
   31.1128   18.5159   47.6550 H   0  0  0  0  0  0  0  0  0  0  0  0
   30.4783   15.4118   49.5071 H   0  0  0  0  0  0  0  0  0  0  0  0
   29.9705   16.9364   48.8051 H   0  0  0  0  0  0  0  0  0  0  0  0
   31.2180   15.9567   48.0102 H   0  0  0  0  0  0  0  0  0  0  0  0
  1  2  1  0  0  0  0
  1 31  1  0  0  0  0
  1 32  1  0  0  0  0
  1 33  1  0  0  0  0
  2  3  2  0  0  0  0
  2  4  2  0  0  0  0
  2  5  1  0  0  0  0
  5  6  1  0  0  0  0
  5 34  1  0  0  0  0
  5 35  1  0  0  0  0
  6  7  1  0  0  0  0
  6 36  1  0  0  0  0
  6 37  1  0  0  0  0
  7  8  1  0  0  0  0
  8 14  1  0  0  0  0
  8  9  2  0  0  0  0
  9 10  1  0  0  0  0
 10 11  2  0  0  0  0
 10 17  1  0  0  0  0
 11 12  1  0  0  0  0
 11 38  1  0  0  0  0
 12 13  1  0  0  0  0
 12 14  2  0  0  0  0
 13 39  1  0  0  0  0
 13 40  1  0  0  0  0
 14 15  1  0  0  0  0
 15 16  3  0  0  0  0
 17 18  1  0  0  0  0
 17 41  1  0  0  0  0
 18 19  2  0  0  0  0
 18 20  1  0  0  0  0
 20 21  1  0  0  0  0
 20 42  1  0  0  0  0
 20 43  1  0  0  0  0
 21 28  1  0  0  0  0
 21 22  2  0  0  0  0
 22 23  1  0  0  0  0
 22 25  1  0  0  0  0
 23 24  1  0  0  0  0
 24 44  1  0  0  0  0
 24 45  1  0  0  0  0
 24 46  1  0  0  0  0
 25 26  2  0  0  0  0
 25 47  1  0  0  0  0
 26 27  1  0  0  0  0
 26 48  1  0  0  0  0
 27 28  2  0  0  0  0
 27 29  1  0  0  0  0
 28 49  1  0  0  0  0
 29 30  1  0  0  0  0
 30 50  1  0  0  0  0
 30 51  1  0  0  0  0
 30 52  1  0  0  0  0
M  END
>  <i_m_stars>
0

>  <r_user_dG.exp>
-8.702592

$$$$
18624-1
  PyMOL2.3          3D                             0

 38 39  0  0  0  0  0  0  0  0999 V2000
   36.3560   26.9772   49.7030 C   0  0  0  0  0  0  0  0  0  0  0  0
   35.2703   26.0323   49.1818 C   0  0  0  0  0  0  0  0  0  0  0  0
   34.0233   26.7191   49.2542 O   0  0  0  0  0  0  0  0  0  0  0  0
   32.8594   26.0645   48.8896 C   0  0  0  0  0  0  0  0  0  0  0  0
   32.9725   24.7738   48.4730 N   0  0  0  0  0  0  0  0  0  0  0  0
   31.8624   24.1307   48.0840 C   0  0  0  0  0  0  0  0  0  0  0  0
   30.6010   24.7042   48.1167 C   0  0  0  0  0  0  0  0  0  0  0  0
   30.4865   26.0137   48.5463 C   0  0  0  0  0  0  0  0  0  0  0  0
   29.1980   26.5322   48.5401 N   0  0  0  0  0  0  0  0  0  0  0  0
   31.6286   26.7286   48.9436 C   0  0  0  0  0  0  0  0  0  0  0  0
   31.5836   28.1155   49.3928 C   0  0  0  0  0  0  0  0  0  0  0  0
   31.5581   29.2164   49.7509 N   0  0  0  0  0  0  0  0  0  0  0  0
   32.1426   22.8341   47.7086 N   0  0  0  0  0  0  0  0  0  0  0  0
   31.4513   21.9960   46.9292 C   0  0  0  0  0  0  0  0  0  0  0  0
   30.4250   22.3197   46.3345 O   0  0  0  0  0  0  0  0  0  0  0  0
   31.9761   20.5613   46.7641 C   0  0  0  0  0  0  0  0  0  0  0  0
   33.2666   20.2537   47.5257 C   0  0  0  0  0  0  0  0  0  0  0  0
   34.4730   20.8561   47.1484 C   0  0  0  0  0  0  0  0  0  0  0  0
   35.6437   20.5968   47.8600 C   0  0  0  0  0  0  0  0  0  0  0  0
   35.6146   19.7326   48.9539 C   0  0  0  0  0  0  0  0  0  0  0  0
   34.4170   19.1242   49.3316 C   0  0  0  0  0  0  0  0  0  0  0  0
   33.2455   19.3838   48.6197 C   0  0  0  0  0  0  0  0  0  0  0  0
   37.3362   26.5027   49.6700 H   0  0  0  0  0  0  0  0  0  0  0  0
   36.4028   27.8826   49.0975 H   0  0  0  0  0  0  0  0  0  0  0  0
   36.1570   27.2739   50.7324 H   0  0  0  0  0  0  0  0  0  0  0  0
   35.4854   25.7407   48.1514 H   0  0  0  0  0  0  0  0  0  0  0  0
   35.2475   25.1241   49.7885 H   0  0  0  0  0  0  0  0  0  0  0  0
   29.7274   24.1509   47.8155 H   0  0  0  0  0  0  0  0  0  0  0  0
   28.4106   25.9275   48.3249 H   0  0  0  0  0  0  0  0  0  0  0  0
   29.0351   27.5105   48.7676 H   0  0  0  0  0  0  0  0  0  0  0  0
   33.0053   22.5055   48.1057 H   0  0  0  0  0  0  0  0  0  0  0  0
   31.1836   19.8775   47.0675 H   0  0  0  0  0  0  0  0  0  0  0  0
   32.1407   20.3835   45.7043 H   0  0  0  0  0  0  0  0  0  0  0  0
   34.5003   21.5325   46.3055 H   0  0  0  0  0  0  0  0  0  0  0  0
   36.5735   21.0647   47.5667 H   0  0  0  0  0  0  0  0  0  0  0  0
   36.5210   19.5353   49.5098 H   0  0  0  0  0  0  0  0  0  0  0  0
   34.3965   18.4533   50.1789 H   0  0  0  0  0  0  0  0  0  0  0  0
   32.3238   18.9069   48.9233 H   0  0  0  0  0  0  0  0  0  0  0  0
  1  2  1  0  0  0  0
  1 23  1  0  0  0  0
  1 24  1  0  0  0  0
  1 25  1  0  0  0  0
  2  3  1  0  0  0  0
  2 26  1  0  0  0  0
  2 27  1  0  0  0  0
  3  4  1  0  0  0  0
  4 10  1  0  0  0  0
  4  5  2  0  0  0  0
  5  6  1  0  0  0  0
  6  7  2  0  0  0  0
  6 13  1  0  0  0  0
  7  8  1  0  0  0  0
  7 28  1  0  0  0  0
  8  9  1  0  0  0  0
  8 10  2  0  0  0  0
  9 29  1  0  0  0  0
  9 30  1  0  0  0  0
 10 11  1  0  0  0  0
 11 12  3  0  0  0  0
 13 14  1  0  0  0  0
 13 31  1  0  0  0  0
 14 15  2  0  0  0  0
 14 16  1  0  0  0  0
 16 17  1  0  0  0  0
 16 32  1  0  0  0  0
 16 33  1  0  0  0  0
 17 22  1  0  0  0  0
 17 18  2  0  0  0  0
 18 19  1  0  0  0  0
 18 34  1  0  0  0  0
 19 20  2  0  0  0  0
 19 35  1  0  0  0  0
 20 21  1  0  0  0  0
 20 36  1  0  0  0  0
 21 22  2  0  0  0  0
 21 37  1  0  0  0  0
 22 38  1  0  0  0  0
M  END
>  <i_m_stars>
2

>  <r_user_dG.exp>
-8.493370

$$$$
18633-1
  PyMOL2.3          3D                             0

 42 43  0  0  0  0  0  0  0  0999 V2000
   36.3674   26.9356   49.6989 C   0  0  0  0  0  0  0  0  0  0  0  0
   35.2732   25.9997   49.1798 C   0  0  0  0  0  0  0  0  0  0  0  0
   34.0319   26.6968   49.2532 O   0  0  0  0  0  0  0  0  0  0  0  0
   32.8627   26.0518   48.8885 C   0  0  0  0  0  0  0  0  0  0  0  0
   32.9659   24.7614   48.4674 N   0  0  0  0  0  0  0  0  0  0  0  0
   31.8504   24.1282   48.0781 C   0  0  0  0  0  0  0  0  0  0  0  0
   30.5932   24.7100   48.1167 C   0  0  0  0  0  0  0  0  0  0  0  0
   30.4889   26.0182   48.5506 C   0  0  0  0  0  0  0  0  0  0  0  0
   29.2035   26.5439   48.5489 N   0  0  0  0  0  0  0  0  0  0  0  0
   31.6366   26.7244   48.9472 C   0  0  0  0  0  0  0  0  0  0  0  0
   31.6007   28.1102   49.4006 C   0  0  0  0  0  0  0  0  0  0  0  0
   31.5818   29.2100   49.7621 N   0  0  0  0  0  0  0  0  0  0  0  0
   32.1182   22.8317   47.6944 N   0  0  0  0  0  0  0  0  0  0  0  0
   31.4209   22.0113   46.9016 C   0  0  0  0  0  0  0  0  0  0  0  0
   30.4042   22.3552   46.3019 O   0  0  0  0  0  0  0  0  0  0  0  0
   31.9254   20.5705   46.7275 C   0  0  0  0  0  0  0  0  0  0  0  0
   33.1914   20.2298   47.5142 C   0  0  0  0  0  0  0  0  0  0  0  0
   33.1242   19.3661   48.6098 C   0  0  0  0  0  0  0  0  0  0  0  0
   34.2754   19.0826   49.3441 C   0  0  0  0  0  0  0  0  0  0  0  0
   35.5034   19.6471   49.0005 C   0  0  0  0  0  0  0  0  0  0  0  0
   35.5676   20.5070   47.8929 C   0  0  0  0  0  0  0  0  0  0  0  0
   34.4195   20.7972   47.1576 C   0  0  0  0  0  0  0  0  0  0  0  0
   36.5784   19.3138   49.7970 O   0  0  0  0  0  0  0  0  0  0  0  0
   37.8596   19.8574   49.4889 C   0  0  0  0  0  0  0  0  0  0  0  0
   37.3434   26.4526   49.6645 H   0  0  0  0  0  0  0  0  0  0  0  0
   36.4210   27.8401   49.0926 H   0  0  0  0  0  0  0  0  0  0  0  0
   36.1724   27.2345   50.7283 H   0  0  0  0  0  0  0  0  0  0  0  0
   35.4847   25.7056   48.1493 H   0  0  0  0  0  0  0  0  0  0  0  0
   35.2433   25.0920   49.7869 H   0  0  0  0  0  0  0  0  0  0  0  0
   29.7149   24.1639   47.8156 H   0  0  0  0  0  0  0  0  0  0  0  0
   28.4134   25.9451   48.3286 H   0  0  0  0  0  0  0  0  0  0  0  0
   29.0462   27.5232   48.7766 H   0  0  0  0  0  0  0  0  0  0  0  0
   32.9727   22.4885   48.0958 H   0  0  0  0  0  0  0  0  0  0  0  0
   31.1149   19.8962   47.0039 H   0  0  0  0  0  0  0  0  0  0  0  0
   32.1125   20.4039   45.6696 H   0  0  0  0  0  0  0  0  0  0  0  0
   32.1843   18.9142   48.8970 H   0  0  0  0  0  0  0  0  0  0  0  0
   34.2242   18.4189   50.1947 H   0  0  0  0  0  0  0  0  0  0  0  0
   36.5004   20.9597   47.5932 H   0  0  0  0  0  0  0  0  0  0  0  0
   34.4822   21.4700   46.3126 H   0  0  0  0  0  0  0  0  0  0  0  0
   38.5808   19.5275   50.2369 H   0  0  0  0  0  0  0  0  0  0  0  0
   38.2145   19.5164   48.5146 H   0  0  0  0  0  0  0  0  0  0  0  0
   37.8529   20.9488   49.5008 H   0  0  0  0  0  0  0  0  0  0  0  0
  1  2  1  0  0  0  0
  1 25  1  0  0  0  0
  1 26  1  0  0  0  0
  1 27  1  0  0  0  0
  2  3  1  0  0  0  0
  2 28  1  0  0  0  0
  2 29  1  0  0  0  0
  3  4  1  0  0  0  0
  4 10  1  0  0  0  0
  4  5  2  0  0  0  0
  5  6  1  0  0  0  0
  6  7  2  0  0  0  0
  6 13  1  0  0  0  0
  7  8  1  0  0  0  0
  7 30  1  0  0  0  0
  8  9  1  0  0  0  0
  8 10  2  0  0  0  0
  9 31  1  0  0  0  0
  9 32  1  0  0  0  0
 10 11  1  0  0  0  0
 11 12  3  0  0  0  0
 13 14  1  0  0  0  0
 13 33  1  0  0  0  0
 14 15  2  0  0  0  0
 14 16  1  0  0  0  0
 16 17  1  0  0  0  0
 16 34  1  0  0  0  0
 16 35  1  0  0  0  0
 17 22  1  0  0  0  0
 17 18  2  0  0  0  0
 18 19  1  0  0  0  0
 18 36  1  0  0  0  0
 19 20  2  0  0  0  0
 19 37  1  0  0  0  0
 20 21  1  0  0  0  0
 20 23  1  0  0  0  0
 21 22  2  0  0  0  0
 21 38  1  0  0  0  0
 22 39  1  0  0  0  0
 23 24  1  0  0  0  0
 24 40  1  0  0  0  0
 24 41  1  0  0  0  0
 24 42  1  0  0  0  0
M  END
>  <i_m_stars>
0

>  <r_user_dG.exp>
-9.174299

$$$$
18635-1
  PyMOL2.3          3D                             0

 44 45  0  0  0  0  0  0  0  0999 V2000
   36.3402   27.1429   49.7192 C   0  0  0  0  0  0  0  0  0  0  0  0
   35.2792   26.1713   49.1968 C   0  0  0  0  0  0  0  0  0  0  0  0
   34.0141   26.8235   49.2746 O   0  0  0  0  0  0  0  0  0  0  0  0
   32.8658   26.1362   48.9194 C   0  0  0  0  0  0  0  0  0  0  0  0
   33.0110   24.8463   48.5124 N   0  0  0  0  0  0  0  0  0  0  0  0
   31.9160   24.1728   48.1330 C   0  0  0  0  0  0  0  0  0  0  0  0
   30.6394   24.7114   48.1633 C   0  0  0  0  0  0  0  0  0  0  0  0
   30.4940   26.0238   48.5773 C   0  0  0  0  0  0  0  0  0  0  0  0
   29.1960   26.5182   48.5557 N   0  0  0  0  0  0  0  0  0  0  0  0
   31.6193   26.7703   48.9663 C   0  0  0  0  0  0  0  0  0  0  0  0
   31.5462   28.1624   49.3944 C   0  0  0  0  0  0  0  0  0  0  0  0
   31.5001   29.2677   49.7351 N   0  0  0  0  0  0  0  0  0  0  0  0
   32.2545   22.9055   47.7180 N   0  0  0  0  0  0  0  0  0  0  0  0
   31.6074   22.0560   46.9176 C   0  0  0  0  0  0  0  0  0  0  0  0
   30.4841   22.2541   46.4568 O   0  0  0  0  0  0  0  0  0  0  0  0
   32.3922   20.8164   46.4940 C   0  0  0  0  0  0  0  0  0  0  0  0
   33.0086   20.0421   47.6592 C   0  0  0  0  0  0  0  0  0  0  0  0
   32.2726   19.1350   48.4491 C   0  0  0  0  0  0  0  0  0  0  0  0
   30.7893   18.8605   48.2397 C   0  0  0  0  0  0  0  0  0  0  0  0
   32.9080   18.4723   49.5026 C   0  0  0  0  0  0  0  0  0  0  0  0
   34.2579   18.6887   49.7696 C   0  0  0  0  0  0  0  0  0  0  0  0
   34.9886   19.5849   48.9923 C   0  0  0  0  0  0  0  0  0  0  0  0
   36.4549   19.8263   49.2937 C   0  0  0  0  0  0  0  0  0  0  0  0
   34.3603   20.2591   47.9455 C   0  0  0  0  0  0  0  0  0  0  0  0
   37.3330   26.6959   49.6816 H   0  0  0  0  0  0  0  0  0  0  0  0
   36.3603   28.0524   49.1183 H   0  0  0  0  0  0  0  0  0  0  0  0
   36.1361   27.4288   50.7506 H   0  0  0  0  0  0  0  0  0  0  0  0
   35.4989   25.8894   48.1648 H   0  0  0  0  0  0  0  0  0  0  0  0
   35.2833   25.2608   49.8004 H   0  0  0  0  0  0  0  0  0  0  0  0
   29.7818   24.1347   47.8599 H   0  0  0  0  0  0  0  0  0  0  0  0
   28.4197   25.8978   48.3439 H   0  0  0  0  0  0  0  0  0  0  0  0
   29.0156   27.4957   48.7729 H   0  0  0  0  0  0  0  0  0  0  0  0
   33.1717   22.6522   48.0362 H   0  0  0  0  0  0  0  0  0  0  0  0
   31.7455   20.1538   45.9217 H   0  0  0  0  0  0  0  0  0  0  0  0
   33.1570   21.1558   45.8063 H   0  0  0  0  0  0  0  0  0  0  0  0
   30.4529   19.0084   47.2161 H   0  0  0  0  0  0  0  0  0  0  0  0
   30.5439   17.8305   48.5042 H   0  0  0  0  0  0  0  0  0  0  0  0
   30.2074   19.5145   48.8887 H   0  0  0  0  0  0  0  0  0  0  0  0
   32.3534   17.7813   50.1225 H   0  0  0  0  0  0  0  0  0  0  0  0
   34.7339   18.1635   50.5854 H   0  0  0  0  0  0  0  0  0  0  0  0
   36.6108   19.9537   50.3655 H   0  0  0  0  0  0  0  0  0  0  0  0
   37.0532   18.9789   48.9585 H   0  0  0  0  0  0  0  0  0  0  0  0
   36.8257   20.7245   48.7977 H   0  0  0  0  0  0  0  0  0  0  0  0
   34.9229   20.9730   47.3618 H   0  0  0  0  0  0  0  0  0  0  0  0
  1  2  1  0  0  0  0
  1 25  1  0  0  0  0
  1 26  1  0  0  0  0
  1 27  1  0  0  0  0
  2  3  1  0  0  0  0
  2 28  1  0  0  0  0
  2 29  1  0  0  0  0
  3  4  1  0  0  0  0
  4 10  1  0  0  0  0
  4  5  2  0  0  0  0
  5  6  1  0  0  0  0
  6  7  2  0  0  0  0
  6 13  1  0  0  0  0
  7  8  1  0  0  0  0
  7 30  1  0  0  0  0
  8  9  1  0  0  0  0
  8 10  2  0  0  0  0
  9 31  1  0  0  0  0
  9 32  1  0  0  0  0
 10 11  1  0  0  0  0
 11 12  3  0  0  0  0
 13 14  1  0  0  0  0
 13 33  1  0  0  0  0
 14 15  2  0  0  0  0
 14 16  1  0  0  0  0
 16 17  1  0  0  0  0
 16 34  1  0  0  0  0
 16 35  1  0  0  0  0
 17 24  1  0  0  0  0
 17 18  2  0  0  0  0
 18 19  1  0  0  0  0
 18 20  1  0  0  0  0
 19 36  1  0  0  0  0
 19 37  1  0  0  0  0
 19 38  1  0  0  0  0
 20 21  2  0  0  0  0
 20 39  1  0  0  0  0
 21 22  1  0  0  0  0
 21 40  1  0  0  0  0
 22 23  1  0  0  0  0
 22 24  2  0  0  0  0
 23 41  1  0  0  0  0
 23 42  1  0  0  0  0
 23 43  1  0  0  0  0
 24 44  1  0  0  0  0
M  END
>  <i_m_stars>
0

>  <r_user_dG.exp>
-7.286071

$$$$
17124-1
  PyMOL2.3          3D                             0

 46 47  0  0  0  0  0  0  0  0999 V2000
   36.4655   27.0797   49.7461 C   0  0  0  0  0  0  0  0  0  0  0  0
   35.3980   26.1349   49.1895 C   0  0  0  0  0  0  0  0  0  0  0  0
   34.1403   26.7982   49.2800 O   0  0  0  0  0  0  0  0  0  0  0  0
   32.9850   26.1296   48.9124 C   0  0  0  0  0  0  0  0  0  0  0  0
   33.1183   24.8523   48.4613 N   0  0  0  0  0  0  0  0  0  0  0  0
   32.0145   24.1945   48.0753 C   0  0  0  0  0  0  0  0  0  0  0  0
   30.7406   24.7396   48.1543 C   0  0  0  0  0  0  0  0  0  0  0  0
   30.6076   26.0386   48.6113 C   0  0  0  0  0  0  0  0  0  0  0  0
   29.3101   26.5366   48.6372 N   0  0  0  0  0  0  0  0  0  0  0  0
   31.7430   26.7692   48.9967 C   0  0  0  0  0  0  0  0  0  0  0  0
   31.6795   28.1508   49.4588 C   0  0  0  0  0  0  0  0  0  0  0  0
   31.6386   29.2479   49.8259 N   0  0  0  0  0  0  0  0  0  0  0  0
   32.3343   22.9378   47.6029 N   0  0  0  0  0  0  0  0  0  0  0  0
   31.6001   22.0563   46.9185 C   0  0  0  0  0  0  0  0  0  0  0  0
   30.4355   22.2375   46.5695 O   0  0  0  0  0  0  0  0  0  0  0  0
   32.3189   20.7839   46.4861 C   0  0  0  0  0  0  0  0  0  0  0  0
   32.8915   19.9746   47.6466 C   0  0  0  0  0  0  0  0  0  0  0  0
   34.1300   20.3145   48.2125 C   0  0  0  0  0  0  0  0  0  0  0  0
   34.7767   21.4304   47.7112 O   0  0  0  0  0  0  0  0  0  0  0  0
   35.9393   21.9269   48.3710 C   0  0  0  0  0  0  0  0  0  0  0  0
   34.6413   19.5137   49.2414 C   0  0  0  0  0  0  0  0  0  0  0  0
   33.9211   18.4204   49.7211 C   0  0  0  0  0  0  0  0  0  0  0  0
   34.6798   17.3702   51.1196 Br  0  0  0  0  0  0  0  0  0  0  0  0
   32.6738   18.0924   49.1785 C   0  0  0  0  0  0  0  0  0  0  0  0
   32.1711   18.8793   48.1333 C   0  0  0  0  0  0  0  0  0  0  0  0
   31.9984   17.0145   49.7178 O   0  0  0  0  0  0  0  0  0  0  0  0
   30.9686   16.3860   48.9587 C   0  0  0  0  0  0  0  0  0  0  0  0
   37.4540   26.6236   49.7025 H   0  0  0  0  0  0  0  0  0  0  0  0
   36.4993   28.0055   49.1714 H   0  0  0  0  0  0  0  0  0  0  0  0
   36.2566   27.3389   50.7837 H   0  0  0  0  0  0  0  0  0  0  0  0
   35.6199   25.8802   48.1509 H   0  0  0  0  0  0  0  0  0  0  0  0
   35.3889   25.2077   49.7672 H   0  0  0  0  0  0  0  0  0  0  0  0
   29.8696   24.1820   47.8537 H   0  0  0  0  0  0  0  0  0  0  0  0
   28.5309   25.9341   48.3912 H   0  0  0  0  0  0  0  0  0  0  0  0
   29.1382   27.5151   48.8558 H   0  0  0  0  0  0  0  0  0  0  0  0
   33.2945   22.6955   47.7910 H   0  0  0  0  0  0  0  0  0  0  0  0
   31.6579   20.1622   45.8882 H   0  0  0  0  0  0  0  0  0  0  0  0
   33.1237   21.1004   45.8302 H   0  0  0  0  0  0  0  0  0  0  0  0
   36.2738   22.8360   47.8710 H   0  0  0  0  0  0  0  0  0  0  0  0
   35.7352   22.1855   49.4113 H   0  0  0  0  0  0  0  0  0  0  0  0
   36.7626   21.2122   48.3319 H   0  0  0  0  0  0  0  0  0  0  0  0
   35.6005   19.7248   49.6870 H   0  0  0  0  0  0  0  0  0  0  0  0
   31.2189   18.6393   47.6863 H   0  0  0  0  0  0  0  0  0  0  0  0
   30.6078   15.5137   49.5032 H   0  0  0  0  0  0  0  0  0  0  0  0
   30.1107   17.0356   48.7923 H   0  0  0  0  0  0  0  0  0  0  0  0
   31.3384   16.0350   47.9961 H   0  0  0  0  0  0  0  0  0  0  0  0
  1  2  1  0  0  0  0
  1 28  1  0  0  0  0
  1 29  1  0  0  0  0
  1 30  1  0  0  0  0
  2  3  1  0  0  0  0
  2 31  1  0  0  0  0
  2 32  1  0  0  0  0
  3  4  1  0  0  0  0
  4 10  1  0  0  0  0
  4  5  2  0  0  0  0
  5  6  1  0  0  0  0
  6  7  2  0  0  0  0
  6 13  1  0  0  0  0
  7  8  1  0  0  0  0
  7 33  1  0  0  0  0
  8  9  1  0  0  0  0
  8 10  2  0  0  0  0
  9 34  1  0  0  0  0
  9 35  1  0  0  0  0
 10 11  1  0  0  0  0
 11 12  3  0  0  0  0
 13 14  1  0  0  0  0
 13 36  1  0  0  0  0
 14 15  2  0  0  0  0
 14 16  1  0  0  0  0
 16 17  1  0  0  0  0
 16 37  1  0  0  0  0
 16 38  1  0  0  0  0
 17 25  1  0  0  0  0
 17 18  2  0  0  0  0
 18 19  1  0  0  0  0
 18 21  1  0  0  0  0
 19 20  1  0  0  0  0
 20 39  1  0  0  0  0
 20 40  1  0  0  0  0
 20 41  1  0  0  0  0
 21 22  2  0  0  0  0
 21 42  1  0  0  0  0
 22 23  1  0  0  0  0
 22 24  1  0  0  0  0
 24 25  2  0  0  0  0
 24 26  1  0  0  0  0
 25 43  1  0  0  0  0
 26 27  1  0  0  0  0
 27 44  1  0  0  0  0
 27 45  1  0  0  0  0
 27 46  1  0  0  0  0
M  END
>  <i_m_stars>
0

>  <r_user_dG.exp>
-9.675922

$$$$
18625-1
  PyMOL2.3          3D                             0

 38 39  0  0  0  0  0  0  0  0999 V2000
   36.3884   27.1859   49.7463 C   0  0  0  0  0  0  0  0  0  0  0  0
   35.3390   26.2203   49.1903 C   0  0  0  0  0  0  0  0  0  0  0  0
   34.0675   26.8584   49.2839 O   0  0  0  0  0  0  0  0  0  0  0  0
   32.9260   26.1681   48.9129 C   0  0  0  0  0  0  0  0  0  0  0  0
   33.0845   24.8926   48.4684 N   0  0  0  0  0  0  0  0  0  0  0  0
   31.9986   24.2135   48.0752 C   0  0  0  0  0  0  0  0  0  0  0  0
   30.7137   24.7335   48.1353 C   0  0  0  0  0  0  0  0  0  0  0  0
   30.5534   26.0330   48.5855 C   0  0  0  0  0  0  0  0  0  0  0  0
   29.2486   26.5122   48.5911 N   0  0  0  0  0  0  0  0  0  0  0  0
   31.6723   26.7851   48.9812 C   0  0  0  0  0  0  0  0  0  0  0  0
   31.5848   28.1681   49.4341 C   0  0  0  0  0  0  0  0  0  0  0  0
   31.5268   29.2667   49.7936 N   0  0  0  0  0  0  0  0  0  0  0  0
   32.3611   22.9665   47.6124 N   0  0  0  0  0  0  0  0  0  0  0  0
   31.6626   22.0562   46.9282 C   0  0  0  0  0  0  0  0  0  0  0  0
   30.4876   22.1854   46.5906 O   0  0  0  0  0  0  0  0  0  0  0  0
   32.4384   20.8198   46.4878 C   0  0  0  0  0  0  0  0  0  0  0  0
   32.9250   19.9631   47.6552 C   0  0  0  0  0  0  0  0  0  0  0  0
   32.0700   19.0747   48.3308 C   0  0  0  0  0  0  0  0  0  0  0  0
   30.4139   18.8826   47.8691 Cl  0  0  0  0  0  0  0  0  0  0  0  0
   32.5512   18.3253   49.4038 C   0  0  0  0  0  0  0  0  0  0  0  0
   33.8825   18.4390   49.8035 C   0  0  0  0  0  0  0  0  0  0  0  0
   34.7348   19.3148   49.1338 C   0  0  0  0  0  0  0  0  0  0  0  0
   34.2567   20.0760   48.0681 C   0  0  0  0  0  0  0  0  0  0  0  0
   37.3859   26.7506   49.6969 H   0  0  0  0  0  0  0  0  0  0  0  0
   36.4003   28.1145   49.1752 H   0  0  0  0  0  0  0  0  0  0  0  0
   36.1789   27.4357   50.7858 H   0  0  0  0  0  0  0  0  0  0  0  0
   35.5644   25.9720   48.1508 H   0  0  0  0  0  0  0  0  0  0  0  0
   35.3505   25.2917   49.7658 H   0  0  0  0  0  0  0  0  0  0  0  0
   29.8581   24.1582   47.8246 H   0  0  0  0  0  0  0  0  0  0  0  0
   29.0618   27.4871   48.8142 H   0  0  0  0  0  0  0  0  0  0  0  0
   28.4770   25.8923   48.3625 H   0  0  0  0  0  0  0  0  0  0  0  0
   33.3314   22.7848   47.8062 H   0  0  0  0  0  0  0  0  0  0  0  0
   31.8246   20.2173   45.8216 H   0  0  0  0  0  0  0  0  0  0  0  0
   33.2769   21.1680   45.8917 H   0  0  0  0  0  0  0  0  0  0  0  0
   31.8852   17.6513   49.9230 H   0  0  0  0  0  0  0  0  0  0  0  0
   34.2517   17.8531   50.6341 H   0  0  0  0  0  0  0  0  0  0  0  0
   35.7647   19.4155   49.4480 H   0  0  0  0  0  0  0  0  0  0  0  0
   34.9241   20.7695   47.5754 H   0  0  0  0  0  0  0  0  0  0  0  0
  1  2  1  0  0  0  0
  1 24  1  0  0  0  0
  1 25  1  0  0  0  0
  1 26  1  0  0  0  0
  2  3  1  0  0  0  0
  2 27  1  0  0  0  0
  2 28  1  0  0  0  0
  3  4  1  0  0  0  0
  4 10  1  0  0  0  0
  4  5  2  0  0  0  0
  5  6  1  0  0  0  0
  6  7  2  0  0  0  0
  6 13  1  0  0  0  0
  7  8  1  0  0  0  0
  7 29  1  0  0  0  0
  8  9  1  0  0  0  0
  8 10  2  0  0  0  0
  9 30  1  0  0  0  0
  9 31  1  0  0  0  0
 10 11  1  0  0  0  0
 11 12  3  0  0  0  0
 13 14  1  0  0  0  0
 13 32  1  0  0  0  0
 14 15  2  0  0  0  0
 14 16  1  0  0  0  0
 16 17  1  0  0  0  0
 16 33  1  0  0  0  0
 16 34  1  0  0  0  0
 17 23  1  0  0  0  0
 17 18  2  0  0  0  0
 18 19  1  0  0  0  0
 18 20  1  0  0  0  0
 20 21  2  0  0  0  0
 20 35  1  0  0  0  0
 21 22  1  0  0  0  0
 21 36  1  0  0  0  0
 22 23  2  0  0  0  0
 22 37  1  0  0  0  0
 23 38  1  0  0  0  0
M  END
>  <i_m_stars>
0

>  <r_user_dG.exp>
-8.105004

$$$$
18659-1
  PyMOL2.3          3D                             0

 50 51  0  0  0  0  0  0  0  0999 V2000
   38.4348   26.4106   48.8488 C   0  0  0  0  0  0  0  0  0  0  0  0
   37.6639   26.5689   50.0354 O   0  0  0  0  0  0  0  0  0  0  0  0
   36.3924   27.1836   49.8307 C   0  0  0  0  0  0  0  0  0  0  0  0
   35.3466   26.2145   49.2496 C   0  0  0  0  0  0  0  0  0  0  0  0
   34.0723   26.8582   49.2858 O   0  0  0  0  0  0  0  0  0  0  0  0
   32.9343   26.1648   48.9131 C   0  0  0  0  0  0  0  0  0  0  0  0
   33.0942   24.8885   48.4690 N   0  0  0  0  0  0  0  0  0  0  0  0
   32.0029   24.2110   48.0766 C   0  0  0  0  0  0  0  0  0  0  0  0
   30.7197   24.7376   48.1438 C   0  0  0  0  0  0  0  0  0  0  0  0
   30.5621   26.0368   48.5919 C   0  0  0  0  0  0  0  0  0  0  0  0
   29.2583   26.5183   48.6012 N   0  0  0  0  0  0  0  0  0  0  0  0
   31.6829   26.7858   48.9828 C   0  0  0  0  0  0  0  0  0  0  0  0
   31.5993   28.1694   49.4353 C   0  0  0  0  0  0  0  0  0  0  0  0
   31.5455   29.2682   49.7946 N   0  0  0  0  0  0  0  0  0  0  0  0
   32.3395   22.9567   47.6049 N   0  0  0  0  0  0  0  0  0  0  0  0
   31.6194   22.0704   46.9096 C   0  0  0  0  0  0  0  0  0  0  0  0
   30.4554   22.2404   46.5513 O   0  0  0  0  0  0  0  0  0  0  0  0
   32.3535   20.8053   46.4804 C   0  0  0  0  0  0  0  0  0  0  0  0
   32.9073   19.9956   47.6492 C   0  0  0  0  0  0  0  0  0  0  0  0
   34.1366   20.3380   48.2349 C   0  0  0  0  0  0  0  0  0  0  0  0
   34.7935   21.4497   47.7366 O   0  0  0  0  0  0  0  0  0  0  0  0
   35.9441   21.9490   48.4153 C   0  0  0  0  0  0  0  0  0  0  0  0
   34.6253   19.5474   49.2839 C   0  0  0  0  0  0  0  0  0  0  0  0
   33.8827   18.4688   49.7656 C   0  0  0  0  0  0  0  0  0  0  0  0
   32.6559   18.1343   49.1979 C   0  0  0  0  0  0  0  0  0  0  0  0
   32.1759   18.9042   48.1308 C   0  0  0  0  0  0  0  0  0  0  0  0
   31.9884   17.0603   49.7481 O   0  0  0  0  0  0  0  0  0  0  0  0
   30.9794   16.4081   48.9805 C   0  0  0  0  0  0  0  0  0  0  0  0
   39.3959   25.9608   49.0982 H   0  0  0  0  0  0  0  0  0  0  0  0
   37.9451   25.7573   48.1254 H   0  0  0  0  0  0  0  0  0  0  0  0
   38.6345   27.3710   48.3703 H   0  0  0  0  0  0  0  0  0  0  0  0
   36.0474   27.5236   50.8072 H   0  0  0  0  0  0  0  0  0  0  0  0
   36.4769   28.0817   49.2154 H   0  0  0  0  0  0  0  0  0  0  0  0
   35.5999   25.9388   48.2247 H   0  0  0  0  0  0  0  0  0  0  0  0
   35.3293   25.3000   49.8461 H   0  0  0  0  0  0  0  0  0  0  0  0
   29.8593   24.1668   47.8387 H   0  0  0  0  0  0  0  0  0  0  0  0
   28.4858   25.9015   48.3680 H   0  0  0  0  0  0  0  0  0  0  0  0
   29.0733   27.4943   48.8208 H   0  0  0  0  0  0  0  0  0  0  0  0
   33.2980   22.7165   47.8064 H   0  0  0  0  0  0  0  0  0  0  0  0
   31.7076   20.1826   45.8667 H   0  0  0  0  0  0  0  0  0  0  0  0
   33.1697   21.1292   45.8416 H   0  0  0  0  0  0  0  0  0  0  0  0
   36.7643   21.2298   48.4038 H   0  0  0  0  0  0  0  0  0  0  0  0
   35.7182   22.2217   49.4472 H   0  0  0  0  0  0  0  0  0  0  0  0
   36.2944   22.8501   47.9116 H   0  0  0  0  0  0  0  0  0  0  0  0
   35.5767   19.7623   49.7456 H   0  0  0  0  0  0  0  0  0  0  0  0
   34.2594   17.8757   50.5863 H   0  0  0  0  0  0  0  0  0  0  0  0
   31.2325   18.6575   47.6696 H   0  0  0  0  0  0  0  0  0  0  0  0
   30.6129   15.5443   49.5347 H   0  0  0  0  0  0  0  0  0  0  0  0
   30.1208   17.0479   48.7816 H   0  0  0  0  0  0  0  0  0  0  0  0
   31.3724   16.0410   48.0330 H   0  0  0  0  0  0  0  0  0  0  0  0
  1  2  1  0  0  0  0
  1 29  1  0  0  0  0
  1 30  1  0  0  0  0
  1 31  1  0  0  0  0
  2  3  1  0  0  0  0
  3  4  1  0  0  0  0
  3 32  1  0  0  0  0
  3 33  1  0  0  0  0
  4  5  1  0  0  0  0
  4 34  1  0  0  0  0
  4 35  1  0  0  0  0
  5  6  1  0  0  0  0
  6 12  1  0  0  0  0
  6  7  2  0  0  0  0
  7  8  1  0  0  0  0
  8  9  2  0  0  0  0
  8 15  1  0  0  0  0
  9 10  1  0  0  0  0
  9 36  1  0  0  0  0
 10 11  1  0  0  0  0
 10 12  2  0  0  0  0
 11 37  1  0  0  0  0
 11 38  1  0  0  0  0
 12 13  1  0  0  0  0
 13 14  3  0  0  0  0
 15 16  1  0  0  0  0
 15 39  1  0  0  0  0
 16 17  2  0  0  0  0
 16 18  1  0  0  0  0
 18 19  1  0  0  0  0
 18 40  1  0  0  0  0
 18 41  1  0  0  0  0
 19 26  1  0  0  0  0
 19 20  2  0  0  0  0
 20 21  1  0  0  0  0
 20 23  1  0  0  0  0
 21 22  1  0  0  0  0
 22 42  1  0  0  0  0
 22 43  1  0  0  0  0
 22 44  1  0  0  0  0
 23 24  2  0  0  0  0
 23 45  1  0  0  0  0
 24 25  1  0  0  0  0
 24 46  1  0  0  0  0
 25 26  2  0  0  0  0
 25 27  1  0  0  0  0
 26 47  1  0  0  0  0
 27 28  1  0  0  0  0
 28 48  1  0  0  0  0
 28 49  1  0  0  0  0
 28 50  1  0  0  0  0
M  END
>  <i_m_stars>
0

>  <r_user_dG.exp>
-9.465222

$$$$
18637-1
  PyMOL2.3          3D                             0

 53 54  0  0  0  0  0  0  0  0999 V2000
   36.4645   27.0906   49.7301 C   0  0  0  0  0  0  0  0  0  0  0  0
   35.4007   26.1605   49.1420 C   0  0  0  0  0  0  0  0  0  0  0  0
   34.1371   26.8040   49.2798 O   0  0  0  0  0  0  0  0  0  0  0  0
   32.9826   26.1354   48.9109 C   0  0  0  0  0  0  0  0  0  0  0  0
   33.1167   24.8607   48.4530 N   0  0  0  0  0  0  0  0  0  0  0  0
   32.0125   24.2018   48.0695 C   0  0  0  0  0  0  0  0  0  0  0  0
   30.7382   24.7448   48.1538 C   0  0  0  0  0  0  0  0  0  0  0  0
   30.6047   26.0422   48.6148 C   0  0  0  0  0  0  0  0  0  0  0  0
   29.3070   26.5392   48.6435 N   0  0  0  0  0  0  0  0  0  0  0  0
   31.7401   26.7726   49.0006 C   0  0  0  0  0  0  0  0  0  0  0  0
   31.6766   28.1529   49.4666 C   0  0  0  0  0  0  0  0  0  0  0  0
   31.6363   29.2488   49.8368 N   0  0  0  0  0  0  0  0  0  0  0  0
   32.3307   22.9457   47.5943 N   0  0  0  0  0  0  0  0  0  0  0  0
   31.5947   22.0646   46.9112 C   0  0  0  0  0  0  0  0  0  0  0  0
   30.4307   22.2491   46.5616 O   0  0  0  0  0  0  0  0  0  0  0  0
   32.3111   20.7893   46.4805 C   0  0  0  0  0  0  0  0  0  0  0  0
   32.9161   19.9987   47.6382 C   0  0  0  0  0  0  0  0  0  0  0  0
   34.1594   20.3580   48.1768 C   0  0  0  0  0  0  0  0  0  0  0  0
   34.7853   21.4740   47.6491 O   0  0  0  0  0  0  0  0  0  0  0  0
   35.9361   22.0087   48.3010 C   0  0  0  0  0  0  0  0  0  0  0  0
   34.6946   19.5844   49.2125 C   0  0  0  0  0  0  0  0  0  0  0  0
   33.9926   18.4913   49.7404 C   0  0  0  0  0  0  0  0  0  0  0  0
   32.7390   18.1475   49.2104 C   0  0  0  0  0  0  0  0  0  0  0  0
   32.2156   18.9063   48.1550 C   0  0  0  0  0  0  0  0  0  0  0  0
   32.0693   17.0753   49.7782 O   0  0  0  0  0  0  0  0  0  0  0  0
   31.0504   16.4162   49.0279 C   0  0  0  0  0  0  0  0  0  0  0  0
   34.4663   17.6976   50.8108 N   0  0  0  0  0  0  0  0  0  0  0  0
   35.6132   17.7320   51.5089 C   0  0  0  0  0  0  0  0  0  0  0  0
   36.5505   18.4917   51.2869 O   0  0  0  0  0  0  0  0  0  0  0  0
   35.7239   16.7625   52.6726 C   0  0  0  0  0  0  0  0  0  0  0  0
   37.4610   26.6627   49.6237 H   0  0  0  0  0  0  0  0  0  0  0  0
   36.4593   28.0556   49.2223 H   0  0  0  0  0  0  0  0  0  0  0  0
   36.2840   27.2704   50.7898 H   0  0  0  0  0  0  0  0  0  0  0  0
   35.6091   25.9611   48.0884 H   0  0  0  0  0  0  0  0  0  0  0  0
   35.4134   25.2059   49.6731 H   0  0  0  0  0  0  0  0  0  0  0  0
   29.8670   24.1870   47.8546 H   0  0  0  0  0  0  0  0  0  0  0  0
   29.1349   27.5174   48.8628 H   0  0  0  0  0  0  0  0  0  0  0  0
   28.5283   25.9370   48.3950 H   0  0  0  0  0  0  0  0  0  0  0  0
   33.2908   22.6999   47.7799 H   0  0  0  0  0  0  0  0  0  0  0  0
   31.6414   20.1554   45.9053 H   0  0  0  0  0  0  0  0  0  0  0  0
   33.0995   21.1038   45.8046 H   0  0  0  0  0  0  0  0  0  0  0  0
   35.7313   22.2627   49.3427 H   0  0  0  0  0  0  0  0  0  0  0  0
   36.7805   21.3188   48.2587 H   0  0  0  0  0  0  0  0  0  0  0  0
   36.2400   22.9262   47.7968 H   0  0  0  0  0  0  0  0  0  0  0  0
   35.6568   19.8462   49.6161 H   0  0  0  0  0  0  0  0  0  0  0  0
   31.2582   18.6515   47.7272 H   0  0  0  0  0  0  0  0  0  0  0  0
   30.7059   15.5444   49.5837 H   0  0  0  0  0  0  0  0  0  0  0  0
   30.1806   17.0479   48.8540 H   0  0  0  0  0  0  0  0  0  0  0  0
   31.4250   16.0605   48.0687 H   0  0  0  0  0  0  0  0  0  0  0  0
   33.7928   16.9988   51.0859 H   0  0  0  0  0  0  0  0  0  0  0  0
   34.8246   16.1624   52.8072 H   0  0  0  0  0  0  0  0  0  0  0  0
   36.5668   16.0925   52.5105 H   0  0  0  0  0  0  0  0  0  0  0  0
   35.9032   17.3222   53.5906 H   0  0  0  0  0  0  0  0  0  0  0  0
  1  2  1  0  0  0  0
  1 31  1  0  0  0  0
  1 32  1  0  0  0  0
  1 33  1  0  0  0  0
  2  3  1  0  0  0  0
  2 34  1  0  0  0  0
  2 35  1  0  0  0  0
  3  4  1  0  0  0  0
  4 10  1  0  0  0  0
  4  5  2  0  0  0  0
  5  6  1  0  0  0  0
  6  7  2  0  0  0  0
  6 13  1  0  0  0  0
  7  8  1  0  0  0  0
  7 36  1  0  0  0  0
  8  9  1  0  0  0  0
  8 10  2  0  0  0  0
  9 37  1  0  0  0  0
  9 38  1  0  0  0  0
 10 11  1  0  0  0  0
 11 12  3  0  0  0  0
 13 14  1  0  0  0  0
 13 39  1  0  0  0  0
 14 15  2  0  0  0  0
 14 16  1  0  0  0  0
 16 17  1  0  0  0  0
 16 40  1  0  0  0  0
 16 41  1  0  0  0  0
 17 24  1  0  0  0  0
 17 18  2  0  0  0  0
 18 19  1  0  0  0  0
 18 21  1  0  0  0  0
 19 20  1  0  0  0  0
 20 42  1  0  0  0  0
 20 43  1  0  0  0  0
 20 44  1  0  0  0  0
 21 22  2  0  0  0  0
 21 45  1  0  0  0  0
 22 23  1  0  0  0  0
 22 27  1  0  0  0  0
 23 24  2  0  0  0  0
 23 25  1  0  0  0  0
 24 46  1  0  0  0  0
 25 26  1  0  0  0  0
 26 47  1  0  0  0  0
 26 48  1  0  0  0  0
 26 49  1  0  0  0  0
 27 28  1  0  0  0  0
 27 50  1  0  0  0  0
 28 29  2  0  0  0  0
 28 30  1  0  0  0  0
 30 51  1  0  0  0  0
 30 52  1  0  0  0  0
 30 53  1  0  0  0  0
M  END
>  <i_m_stars>
0

>  <r_user_dG.exp>
-10.141692

$$$$
18638-1
  PyMOL2.3          3D                             0

 52 53  0  0  0  0  0  0  0  0999 V2000
   36.4647   27.0748   49.7459 C   0  0  0  0  0  0  0  0  0  0  0  0
   35.3972   26.1299   49.1892 C   0  0  0  0  0  0  0  0  0  0  0  0
   34.1395   26.7932   49.2792 O   0  0  0  0  0  0  0  0  0  0  0  0
   32.9842   26.1247   48.9119 C   0  0  0  0  0  0  0  0  0  0  0  0
   33.1173   24.8469   48.4617 N   0  0  0  0  0  0  0  0  0  0  0  0
   32.0137   24.1887   48.0764 C   0  0  0  0  0  0  0  0  0  0  0  0
   30.7397   24.7344   48.1544 C   0  0  0  0  0  0  0  0  0  0  0  0
   30.6068   26.0340   48.6103 C   0  0  0  0  0  0  0  0  0  0  0  0
   29.3095   26.5329   48.6352 N   0  0  0  0  0  0  0  0  0  0  0  0
   31.7424   26.7645   48.9956 C   0  0  0  0  0  0  0  0  0  0  0  0
   31.6787   28.1463   49.4574 C   0  0  0  0  0  0  0  0  0  0  0  0
   31.6378   29.2433   49.8245 N   0  0  0  0  0  0  0  0  0  0  0  0
   32.3334   22.9309   47.6058 N   0  0  0  0  0  0  0  0  0  0  0  0
   31.5998   22.0519   46.9174 C   0  0  0  0  0  0  0  0  0  0  0  0
   30.4370   22.2362   46.5644 O   0  0  0  0  0  0  0  0  0  0  0  0
   32.3158   20.7786   46.4854 C   0  0  0  0  0  0  0  0  0  0  0  0
   32.8601   19.9558   47.6488 C   0  0  0  0  0  0  0  0  0  0  0  0
   34.0931   20.2791   48.2350 C   0  0  0  0  0  0  0  0  0  0  0  0
   34.7583   21.3911   47.7487 O   0  0  0  0  0  0  0  0  0  0  0  0
   35.9447   21.8472   48.3957 C   0  0  0  0  0  0  0  0  0  0  0  0
   34.5821   19.4660   49.2648 C   0  0  0  0  0  0  0  0  0  0  0  0
   33.8404   18.3725   49.7241 C   0  0  0  0  0  0  0  0  0  0  0  0
   34.5251   17.3445   51.0307 S   0  0  0  0  0  0  0  0  0  0  0  0
   35.7807   17.9533   51.4997 O   0  0  0  0  0  0  0  0  0  0  0  0
   33.4643   17.0433   52.0054 O   0  0  0  0  0  0  0  0  0  0  0  0
   34.9609   15.7797   50.1710 C   0  0  0  0  0  0  0  0  0  0  0  0
   32.6001   18.0556   49.1542 C   0  0  0  0  0  0  0  0  0  0  0  0
   32.1234   18.8615   48.1115 C   0  0  0  0  0  0  0  0  0  0  0  0
   31.9080   16.9667   49.6482 O   0  0  0  0  0  0  0  0  0  0  0  0
   30.8724   16.3732   48.8694 C   0  0  0  0  0  0  0  0  0  0  0  0
   37.4532   26.6189   49.7018 H   0  0  0  0  0  0  0  0  0  0  0  0
   36.4982   28.0009   49.1715 H   0  0  0  0  0  0  0  0  0  0  0  0
   36.2559   27.3336   50.7838 H   0  0  0  0  0  0  0  0  0  0  0  0
   35.6194   25.8751   48.1506 H   0  0  0  0  0  0  0  0  0  0  0  0
   35.3880   25.2028   49.7669 H   0  0  0  0  0  0  0  0  0  0  0  0
   29.8686   24.1769   47.8545 H   0  0  0  0  0  0  0  0  0  0  0  0
   28.5296   25.9305   48.3905 H   0  0  0  0  0  0  0  0  0  0  0  0
   29.1380   27.5114   48.8541 H   0  0  0  0  0  0  0  0  0  0  0  0
   33.2920   22.6868   47.8000 H   0  0  0  0  0  0  0  0  0  0  0  0
   31.6606   20.1666   45.8719 H   0  0  0  0  0  0  0  0  0  0  0  0
   33.1345   21.0925   45.8454 H   0  0  0  0  0  0  0  0  0  0  0  0
   36.3011   22.7481   47.8958 H   0  0  0  0  0  0  0  0  0  0  0  0
   35.7629   22.1070   49.4394 H   0  0  0  0  0  0  0  0  0  0  0  0
   36.7451   21.1075   48.3420 H   0  0  0  0  0  0  0  0  0  0  0  0
   35.5388   19.6745   49.7171 H   0  0  0  0  0  0  0  0  0  0  0  0
   35.6779   15.9904   49.3801 H   0  0  0  0  0  0  0  0  0  0  0  0
   35.3923   15.0856   50.8890 H   0  0  0  0  0  0  0  0  0  0  0  0
   34.0576   15.3501   49.7404 H   0  0  0  0  0  0  0  0  0  0  0  0
   31.1794   18.6347   47.6419 H   0  0  0  0  0  0  0  0  0  0  0  0
   31.2470   16.0278   47.9075 H   0  0  0  0  0  0  0  0  0  0  0  0
   30.0292   17.0415   48.7034 H   0  0  0  0  0  0  0  0  0  0  0  0
   30.4881   15.5005   49.3970 H   0  0  0  0  0  0  0  0  0  0  0  0
  1  2  1  0  0  0  0
  1 31  1  0  0  0  0
  1 32  1  0  0  0  0
  1 33  1  0  0  0  0
  2  3  1  0  0  0  0
  2 34  1  0  0  0  0
  2 35  1  0  0  0  0
  3  4  1  0  0  0  0
  4 10  1  0  0  0  0
  4  5  2  0  0  0  0
  5  6  1  0  0  0  0
  6  7  2  0  0  0  0
  6 13  1  0  0  0  0
  7  8  1  0  0  0  0
  7 36  1  0  0  0  0
  8  9  1  0  0  0  0
  8 10  2  0  0  0  0
  9 37  1  0  0  0  0
  9 38  1  0  0  0  0
 10 11  1  0  0  0  0
 11 12  3  0  0  0  0
 13 14  1  0  0  0  0
 13 39  1  0  0  0  0
 14 15  2  0  0  0  0
 14 16  1  0  0  0  0
 16 17  1  0  0  0  0
 16 40  1  0  0  0  0
 16 41  1  0  0  0  0
 17 28  1  0  0  0  0
 17 18  2  0  0  0  0
 18 19  1  0  0  0  0
 18 21  1  0  0  0  0
 19 20  1  0  0  0  0
 20 42  1  0  0  0  0
 20 43  1  0  0  0  0
 20 44  1  0  0  0  0
 21 22  2  0  0  0  0
 21 45  1  0  0  0  0
 22 23  1  0  0  0  0
 22 27  1  0  0  0  0
 23 24  2  0  0  0  0
 23 25  2  0  0  0  0
 23 26  1  0  0  0  0
 26 46  1  0  0  0  0
 26 47  1  0  0  0  0
 26 48  1  0  0  0  0
 27 28  2  0  0  0  0
 27 29  1  0  0  0  0
 28 49  1  0  0  0  0
 29 30  1  0  0  0  0
 30 50  1  0  0  0  0
 30 51  1  0  0  0  0
 30 52  1  0  0  0  0
M  END
>  <i_m_stars>
0

>  <r_user_dG.exp>
-10.093111

$$$$
18652-1
  PyMOL2.3          3D                             0

 55 56  0  0  0  0  0  0  0  0999 V2000
   35.7899   24.9629   49.7744 C   0  0  0  0  0  0  0  0  0  0  0  0
   35.4637   26.1734   48.8901 C   0  0  0  0  0  0  0  0  0  0  0  0
   35.7555   25.9209   47.4040 C   0  0  0  0  0  0  0  0  0  0  0  0
   34.1649   26.7302   49.1435 O   0  0  0  0  0  0  0  0  0  0  0  0
   32.9838   26.0654   48.8507 C   0  0  0  0  0  0  0  0  0  0  0  0
   33.0785   24.7839   48.4192 N   0  0  0  0  0  0  0  0  0  0  0  0
   31.9656   24.1314   48.0758 C   0  0  0  0  0  0  0  0  0  0  0  0
   30.6997   24.6895   48.1716 C   0  0  0  0  0  0  0  0  0  0  0  0
   30.5957   25.9969   48.6173 C   0  0  0  0  0  0  0  0  0  0  0  0
   29.3069   26.5157   48.6613 N   0  0  0  0  0  0  0  0  0  0  0  0
   31.7504   26.7170   48.9719 C   0  0  0  0  0  0  0  0  0  0  0  0
   31.7126   28.0999   49.4337 C   0  0  0  0  0  0  0  0  0  0  0  0
   31.6907   29.1976   49.8020 N   0  0  0  0  0  0  0  0  0  0  0  0
   32.2846   22.8694   47.6259 N   0  0  0  0  0  0  0  0  0  0  0  0
   31.5662   22.0067   46.9084 C   0  0  0  0  0  0  0  0  0  0  0  0
   30.4198   22.2162   46.5203 O   0  0  0  0  0  0  0  0  0  0  0  0
   32.2840   20.7309   46.4856 C   0  0  0  0  0  0  0  0  0  0  0  0
   32.8138   19.9028   47.6529 C   0  0  0  0  0  0  0  0  0  0  0  0
   34.0523   20.2043   48.2400 C   0  0  0  0  0  0  0  0  0  0  0  0
   34.7403   21.3010   47.7518 O   0  0  0  0  0  0  0  0  0  0  0  0
   36.0468   21.5912   48.2440 C   0  0  0  0  0  0  0  0  0  0  0  0
   34.5207   19.3897   49.2789 C   0  0  0  0  0  0  0  0  0  0  0  0
   33.7588   18.3113   49.7399 C   0  0  0  0  0  0  0  0  0  0  0  0
   34.4142   17.2846   51.0621 S   0  0  0  0  0  0  0  0  0  0  0  0
   33.3433   17.0270   52.0383 O   0  0  0  0  0  0  0  0  0  0  0  0
   35.6844   17.8671   51.5253 O   0  0  0  0  0  0  0  0  0  0  0  0
   34.8117   15.6959   50.2278 C   0  0  0  0  0  0  0  0  0  0  0  0
   32.5192   18.0096   49.1614 C   0  0  0  0  0  0  0  0  0  0  0  0
   32.0609   18.8193   48.1138 C   0  0  0  0  0  0  0  0  0  0  0  0
   31.8075   16.9322   49.6527 O   0  0  0  0  0  0  0  0  0  0  0  0
   30.7914   16.3352   48.8515 C   0  0  0  0  0  0  0  0  0  0  0  0
   35.5835   25.1994   50.8132 H   0  0  0  0  0  0  0  0  0  0  0  0
   35.2032   24.0843   49.5176 H   0  0  0  0  0  0  0  0  0  0  0  0
   36.8391   24.6840   49.6844 H   0  0  0  0  0  0  0  0  0  0  0  0
   36.1484   26.9649   49.2004 H   0  0  0  0  0  0  0  0  0  0  0  0
   35.6286   26.8403   46.8380 H   0  0  0  0  0  0  0  0  0  0  0  0
   36.7837   25.5914   47.2608 H   0  0  0  0  0  0  0  0  0  0  0  0
   35.1102   25.1635   46.9630 H   0  0  0  0  0  0  0  0  0  0  0  0
   29.8191   24.1340   47.8955 H   0  0  0  0  0  0  0  0  0  0  0  0
   28.5175   25.9260   48.4170 H   0  0  0  0  0  0  0  0  0  0  0  0
   29.1545   27.4996   48.8679 H   0  0  0  0  0  0  0  0  0  0  0  0
   33.2374   22.6227   47.8437 H   0  0  0  0  0  0  0  0  0  0  0  0
   31.6351   20.1214   45.8638 H   0  0  0  0  0  0  0  0  0  0  0  0
   33.1102   21.0446   45.8554 H   0  0  0  0  0  0  0  0  0  0  0  0
   36.7427   20.7760   48.0391 H   0  0  0  0  0  0  0  0  0  0  0  0
   36.4297   22.4813   47.7441 H   0  0  0  0  0  0  0  0  0  0  0  0
   36.0423   21.7976   49.3153 H   0  0  0  0  0  0  0  0  0  0  0  0
   35.4752   19.5869   49.7402 H   0  0  0  0  0  0  0  0  0  0  0  0
   35.5334   15.8765   49.4337 H   0  0  0  0  0  0  0  0  0  0  0  0
   35.2266   15.0033   50.9569 H   0  0  0  0  0  0  0  0  0  0  0  0
   33.8985   15.2810   49.8041 H   0  0  0  0  0  0  0  0  0  0  0  0
   31.1180   18.6032   47.6379 H   0  0  0  0  0  0  0  0  0  0  0  0
   29.9516   17.0028   48.6646 H   0  0  0  0  0  0  0  0  0  0  0  0
   31.1904   15.9886   47.8994 H   0  0  0  0  0  0  0  0  0  0  0  0
   30.3957   15.4633   49.3718 H   0  0  0  0  0  0  0  0  0  0  0  0
  1  2  1  0  0  0  0
  1 32  1  0  0  0  0
  1 33  1  0  0  0  0
  1 34  1  0  0  0  0
  2  3  1  0  0  0  0
  2  4  1  0  0  0  0
  2 35  1  0  0  0  0
  3 36  1  0  0  0  0
  3 37  1  0  0  0  0
  3 38  1  0  0  0  0
  4  5  1  0  0  0  0
  5 11  1  0  0  0  0
  5  6  2  0  0  0  0
  6  7  1  0  0  0  0
  7  8  2  0  0  0  0
  7 14  1  0  0  0  0
  8  9  1  0  0  0  0
  8 39  1  0  0  0  0
  9 10  1  0  0  0  0
  9 11  2  0  0  0  0
 10 40  1  0  0  0  0
 10 41  1  0  0  0  0
 11 12  1  0  0  0  0
 12 13  3  0  0  0  0
 14 15  1  0  0  0  0
 14 42  1  0  0  0  0
 15 16  2  0  0  0  0
 15 17  1  0  0  0  0
 17 18  1  0  0  0  0
 17 43  1  0  0  0  0
 17 44  1  0  0  0  0
 18 29  1  0  0  0  0
 18 19  2  0  0  0  0
 19 20  1  0  0  0  0
 19 22  1  0  0  0  0
 20 21  1  0  0  0  0
 21 45  1  0  0  0  0
 21 46  1  0  0  0  0
 21 47  1  0  0  0  0
 22 23  2  0  0  0  0
 22 48  1  0  0  0  0
 23 24  1  0  0  0  0
 23 28  1  0  0  0  0
 24 25  2  0  0  0  0
 24 26  2  0  0  0  0
 24 27  1  0  0  0  0
 27 49  1  0  0  0  0
 27 50  1  0  0  0  0
 27 51  1  0  0  0  0
 28 29  2  0  0  0  0
 28 30  1  0  0  0  0
 29 52  1  0  0  0  0
 30 31  1  0  0  0  0
 31 53  1  0  0  0  0
 31 54  1  0  0  0  0
 31 55  1  0  0  0  0
M  END
>  <i_m_stars>
0

>  <r_user_dG.exp>
-10.682977

$$$$
18627-1
  PyMOL2.3          3D                             0

 38 39  0  0  0  0  0  0  0  0999 V2000
   36.3779   26.9451   49.7039 C   0  0  0  0  0  0  0  0  0  0  0  0
   35.2887   26.0054   49.1813 C   0  0  0  0  0  0  0  0  0  0  0  0
   34.0450   26.6975   49.2545 O   0  0  0  0  0  0  0  0  0  0  0  0
   32.8777   26.0496   48.8891 C   0  0  0  0  0  0  0  0  0  0  0  0
   32.9837   24.7595   48.4664 N   0  0  0  0  0  0  0  0  0  0  0  0
   31.8686   24.1254   48.0764 C   0  0  0  0  0  0  0  0  0  0  0  0
   30.6101   24.7053   48.1178 C   0  0  0  0  0  0  0  0  0  0  0  0
   30.5034   26.0129   48.5538 C   0  0  0  0  0  0  0  0  0  0  0  0
   29.2172   26.5374   48.5552 N   0  0  0  0  0  0  0  0  0  0  0  0
   31.6503   26.7202   48.9496 C   0  0  0  0  0  0  0  0  0  0  0  0
   31.6123   28.1057   49.4044 C   0  0  0  0  0  0  0  0  0  0  0  0
   31.5914   29.2051   49.7669 N   0  0  0  0  0  0  0  0  0  0  0  0
   32.1404   22.8301   47.6885 N   0  0  0  0  0  0  0  0  0  0  0  0
   31.4385   22.0086   46.9002 C   0  0  0  0  0  0  0  0  0  0  0  0
   30.4157   22.3505   46.3103 O   0  0  0  0  0  0  0  0  0  0  0  0
   31.9418   20.5704   46.7130 C   0  0  0  0  0  0  0  0  0  0  0  0
   33.1550   20.1846   47.5588 C   0  0  0  0  0  0  0  0  0  0  0  0
   34.4191   20.7195   47.2785 C   0  0  0  0  0  0  0  0  0  0  0  0
   35.5174   20.3744   48.0676 C   0  0  0  0  0  0  0  0  0  0  0  0
   35.3577   19.4930   49.1360 C   0  0  0  0  0  0  0  0  0  0  0  0
   36.7075   19.0727   50.1214 Cl  0  0  0  0  0  0  0  0  0  0  0  0
   34.1029   18.9540   49.4148 C   0  0  0  0  0  0  0  0  0  0  0  0
   33.0027   19.2978   48.6289 C   0  0  0  0  0  0  0  0  0  0  0  0
   37.3562   26.4667   49.6705 H   0  0  0  0  0  0  0  0  0  0  0  0
   36.4284   27.8511   49.0994 H   0  0  0  0  0  0  0  0  0  0  0  0
   36.1798   27.2415   50.7335 H   0  0  0  0  0  0  0  0  0  0  0  0
   35.5027   25.7143   48.1506 H   0  0  0  0  0  0  0  0  0  0  0  0
   35.2615   25.0966   49.7870 H   0  0  0  0  0  0  0  0  0  0  0  0
   29.7316   24.1590   47.8171 H   0  0  0  0  0  0  0  0  0  0  0  0
   28.4270   25.9393   48.3329 H   0  0  0  0  0  0  0  0  0  0  0  0
   29.0593   27.5165   48.7827 H   0  0  0  0  0  0  0  0  0  0  0  0
   32.9982   22.4944   48.0872 H   0  0  0  0  0  0  0  0  0  0  0  0
   31.1101   19.8996   46.9263 H   0  0  0  0  0  0  0  0  0  0  0  0
   32.1787   20.4332   45.6615 H   0  0  0  0  0  0  0  0  0  0  0  0
   34.5501   21.4051   46.4518 H   0  0  0  0  0  0  0  0  0  0  0  0
   36.4947   20.7859   47.8580 H   0  0  0  0  0  0  0  0  0  0  0  0
   33.9890   18.2700   50.2429 H   0  0  0  0  0  0  0  0  0  0  0  0
   32.0355   18.8692   48.8534 H   0  0  0  0  0  0  0  0  0  0  0  0
  1  2  1  0  0  0  0
  1 24  1  0  0  0  0
  1 25  1  0  0  0  0
  1 26  1  0  0  0  0
  2  3  1  0  0  0  0
  2 27  1  0  0  0  0
  2 28  1  0  0  0  0
  3  4  1  0  0  0  0
  4 10  1  0  0  0  0
  4  5  2  0  0  0  0
  5  6  1  0  0  0  0
  6  7  2  0  0  0  0
  6 13  1  0  0  0  0
  7  8  1  0  0  0  0
  7 29  1  0  0  0  0
  8  9  1  0  0  0  0
  8 10  2  0  0  0  0
  9 30  1  0  0  0  0
  9 31  1  0  0  0  0
 10 11  1  0  0  0  0
 11 12  3  0  0  0  0
 13 14  1  0  0  0  0
 13 32  1  0  0  0  0
 14 15  2  0  0  0  0
 14 16  1  0  0  0  0
 16 17  1  0  0  0  0
 16 33  1  0  0  0  0
 16 34  1  0  0  0  0
 17 23  1  0  0  0  0
 17 18  2  0  0  0  0
 18 19  1  0  0  0  0
 18 35  1  0  0  0  0
 19 20  2  0  0  0  0
 19 36  1  0  0  0  0
 20 21  1  0  0  0  0
 20 22  1  0  0  0  0
 22 23  2  0  0  0  0
 22 37  1  0  0  0  0
 23 38  1  0  0  0  0
M  END
>  <i_m_stars>
0

>  <r_user_dG.exp>
-8.483096

$$$$
18658-1
  PyMOL2.3          3D                             0

 47 48  0  0  0  0  0  0  0  0999 V2000
   37.7527   26.9843   48.3159 O   0  0  0  0  0  0  0  0  0  0  0  0
   36.5103   27.4013   48.8607 C   0  0  0  0  0  0  0  0  0  0  0  0
   35.4205   26.3403   48.6428 C   0  0  0  0  0  0  0  0  0  0  0  0
   34.1718   26.8625   49.1027 O   0  0  0  0  0  0  0  0  0  0  0  0
   33.0077   26.1577   48.8492 C   0  0  0  0  0  0  0  0  0  0  0  0
   33.1402   24.8800   48.4014 N   0  0  0  0  0  0  0  0  0  0  0  0
   32.0300   24.2008   48.0743 C   0  0  0  0  0  0  0  0  0  0  0  0
   30.7532   24.7302   48.2013 C   0  0  0  0  0  0  0  0  0  0  0  0
   30.6220   26.0312   48.6553 C   0  0  0  0  0  0  0  0  0  0  0  0
   29.3231   26.5217   48.7134 N   0  0  0  0  0  0  0  0  0  0  0  0
   31.7618   26.7763   48.9969 C   0  0  0  0  0  0  0  0  0  0  0  0
   31.7006   28.1593   49.4553 C   0  0  0  0  0  0  0  0  0  0  0  0
   31.6625   29.2574   49.8192 N   0  0  0  0  0  0  0  0  0  0  0  0
   32.3440   22.9432   47.5992 N   0  0  0  0  0  0  0  0  0  0  0  0
   31.6034   22.0647   46.9172 C   0  0  0  0  0  0  0  0  0  0  0  0
   30.4386   22.2523   46.5707 O   0  0  0  0  0  0  0  0  0  0  0  0
   32.3157   20.7872   46.4863 C   0  0  0  0  0  0  0  0  0  0  0  0
   32.8796   19.9782   47.6513 C   0  0  0  0  0  0  0  0  0  0  0  0
   34.1131   20.3206   48.2281 C   0  0  0  0  0  0  0  0  0  0  0  0
   34.7692   21.4286   47.7209 O   0  0  0  0  0  0  0  0  0  0  0  0
   35.9307   21.9226   48.3845 C   0  0  0  0  0  0  0  0  0  0  0  0
   34.6071   19.5333   49.2774 C   0  0  0  0  0  0  0  0  0  0  0  0
   33.8684   18.4544   49.7642 C   0  0  0  0  0  0  0  0  0  0  0  0
   32.6403   18.1163   49.2014 C   0  0  0  0  0  0  0  0  0  0  0  0
   32.1535   18.8852   48.1368 C   0  0  0  0  0  0  0  0  0  0  0  0
   31.9783   17.0396   49.7527 O   0  0  0  0  0  0  0  0  0  0  0  0
   30.9654   16.3884   48.9892 C   0  0  0  0  0  0  0  0  0  0  0  0
   37.7218   27.0780   47.3454 H   0  0  0  0  0  0  0  0  0  0  0  0
   36.6307   27.5941   49.9281 H   0  0  0  0  0  0  0  0  0  0  0  0
   36.2146   28.3460   48.4006 H   0  0  0  0  0  0  0  0  0  0  0  0
   35.3568   26.0973   47.5795 H   0  0  0  0  0  0  0  0  0  0  0  0
   35.6710   25.4214   49.1767 H   0  0  0  0  0  0  0  0  0  0  0  0
   29.8793   24.1585   47.9379 H   0  0  0  0  0  0  0  0  0  0  0  0
   28.5444   25.9236   48.4550 H   0  0  0  0  0  0  0  0  0  0  0  0
   29.1545   27.5056   48.9090 H   0  0  0  0  0  0  0  0  0  0  0  0
   33.3022   22.6904   47.7878 H   0  0  0  0  0  0  0  0  0  0  0  0
   31.6532   20.1680   45.8874 H   0  0  0  0  0  0  0  0  0  0  0  0
   33.1255   21.0971   45.8333 H   0  0  0  0  0  0  0  0  0  0  0  0
   36.7468   21.1989   48.3632 H   0  0  0  0  0  0  0  0  0  0  0  0
   36.2793   22.8214   47.8755 H   0  0  0  0  0  0  0  0  0  0  0  0
   35.7194   22.1971   49.4191 H   0  0  0  0  0  0  0  0  0  0  0  0
   35.5605   19.7502   49.7344 H   0  0  0  0  0  0  0  0  0  0  0  0
   34.2499   17.8626   50.5837 H   0  0  0  0  0  0  0  0  0  0  0  0
   31.2088   18.6357   47.6800 H   0  0  0  0  0  0  0  0  0  0  0  0
   30.6085   15.5181   49.5395 H   0  0  0  0  0  0  0  0  0  0  0  0
   30.1023   17.0263   48.8045 H   0  0  0  0  0  0  0  0  0  0  0  0
   31.3512   16.0318   48.0345 H   0  0  0  0  0  0  0  0  0  0  0  0
  1  2  1  0  0  0  0
  1 28  1  0  0  0  0
  2  3  1  0  0  0  0
  2 29  1  0  0  0  0
  2 30  1  0  0  0  0
  3  4  1  0  0  0  0
  3 31  1  0  0  0  0
  3 32  1  0  0  0  0
  4  5  1  0  0  0  0
  5 11  1  0  0  0  0
  5  6  2  0  0  0  0
  6  7  1  0  0  0  0
  7  8  2  0  0  0  0
  7 14  1  0  0  0  0
  8  9  1  0  0  0  0
  8 33  1  0  0  0  0
  9 10  1  0  0  0  0
  9 11  2  0  0  0  0
 10 34  1  0  0  0  0
 10 35  1  0  0  0  0
 11 12  1  0  0  0  0
 12 13  3  0  0  0  0
 14 15  1  0  0  0  0
 14 36  1  0  0  0  0
 15 16  2  0  0  0  0
 15 17  1  0  0  0  0
 17 18  1  0  0  0  0
 17 37  1  0  0  0  0
 17 38  1  0  0  0  0
 18 25  1  0  0  0  0
 18 19  2  0  0  0  0
 19 20  1  0  0  0  0
 19 22  1  0  0  0  0
 20 21  1  0  0  0  0
 21 39  1  0  0  0  0
 21 40  1  0  0  0  0
 21 41  1  0  0  0  0
 22 23  2  0  0  0  0
 22 42  1  0  0  0  0
 23 24  1  0  0  0  0
 23 43  1  0  0  0  0
 24 25  2  0  0  0  0
 24 26  1  0  0  0  0
 25 44  1  0  0  0  0
 26 27  1  0  0  0  0
 27 45  1  0  0  0  0
 27 46  1  0  0  0  0
 27 47  1  0  0  0  0
M  END
>  <i_m_stars>
0

>  <r_user_dG.exp>
-9.699398

$$$$
18630-1
  PyMOL2.3          3D                             0

 41 42  0  0  0  0  0  0  0  0999 V2000
   36.3560   26.9646   49.7028 C   0  0  0  0  0  0  0  0  0  0  0  0
   35.2677   26.0225   49.1823 C   0  0  0  0  0  0  0  0  0  0  0  0
   34.0227   26.7132   49.2538 O   0  0  0  0  0  0  0  0  0  0  0  0
   32.8570   26.0619   48.8891 C   0  0  0  0  0  0  0  0  0  0  0  0
   32.9667   24.7713   48.4709 N   0  0  0  0  0  0  0  0  0  0  0  0
   31.8546   24.1317   48.0816 C   0  0  0  0  0  0  0  0  0  0  0  0
   30.5948   24.7081   48.1162 C   0  0  0  0  0  0  0  0  0  0  0  0
   30.4839   26.0171   48.5472 C   0  0  0  0  0  0  0  0  0  0  0  0
   29.1964   26.5378   48.5419 N   0  0  0  0  0  0  0  0  0  0  0  0
   31.6277   26.7291   48.9444 C   0  0  0  0  0  0  0  0  0  0  0  0
   31.5862   28.1157   49.3946 C   0  0  0  0  0  0  0  0  0  0  0  0
   31.5631   29.2163   49.7534 N   0  0  0  0  0  0  0  0  0  0  0  0
   32.1301   22.8354   47.7026 N   0  0  0  0  0  0  0  0  0  0  0  0
   31.4375   22.0043   46.9167 C   0  0  0  0  0  0  0  0  0  0  0  0
   30.4149   22.3356   46.3197 O   0  0  0  0  0  0  0  0  0  0  0  0
   31.9562   20.5680   46.7471 C   0  0  0  0  0  0  0  0  0  0  0  0
   33.2389   20.2513   47.5164 C   0  0  0  0  0  0  0  0  0  0  0  0
   33.2042   19.3822   48.6100 C   0  0  0  0  0  0  0  0  0  0  0  0
   34.3679   19.1201   49.3332 C   0  0  0  0  0  0  0  0  0  0  0  0
   35.5734   19.7257   48.9706 C   0  0  0  0  0  0  0  0  0  0  0  0
   36.8343   19.4474   49.7646 C   0  0  0  0  0  0  0  0  0  0  0  0
   35.6130   20.5855   47.8714 C   0  0  0  0  0  0  0  0  0  0  0  0
   34.4506   20.8474   47.1482 C   0  0  0  0  0  0  0  0  0  0  0  0
   37.3348   26.4871   49.6702 H   0  0  0  0  0  0  0  0  0  0  0  0
   36.4056   27.8695   49.0967 H   0  0  0  0  0  0  0  0  0  0  0  0
   36.1579   27.2626   50.7319 H   0  0  0  0  0  0  0  0  0  0  0  0
   35.4822   25.7295   48.1521 H   0  0  0  0  0  0  0  0  0  0  0  0
   35.2420   25.1147   49.7895 H   0  0  0  0  0  0  0  0  0  0  0  0
   29.7196   24.1574   47.8145 H   0  0  0  0  0  0  0  0  0  0  0  0
   28.4082   25.9346   48.3256 H   0  0  0  0  0  0  0  0  0  0  0  0
   29.0350   27.5164   48.7698 H   0  0  0  0  0  0  0  0  0  0  0  0
   32.9898   22.5006   48.1009 H   0  0  0  0  0  0  0  0  0  0  0  0
   31.1586   19.8865   47.0421 H   0  0  0  0  0  0  0  0  0  0  0  0
   32.1283   20.3944   45.6880 H   0  0  0  0  0  0  0  0  0  0  0  0
   32.2783   18.9086   48.9052 H   0  0  0  0  0  0  0  0  0  0  0  0
   34.3311   18.4485   50.1792 H   0  0  0  0  0  0  0  0  0  0  0  0
   37.3453   18.5715   49.3646 H   0  0  0  0  0  0  0  0  0  0  0  0
   37.5222   20.2930   49.7233 H   0  0  0  0  0  0  0  0  0  0  0  0
   36.6072   19.2626   50.8149 H   0  0  0  0  0  0  0  0  0  0  0  0
   36.5443   21.0517   47.5802 H   0  0  0  0  0  0  0  0  0  0  0  0
   34.4887   21.5226   46.3047 H   0  0  0  0  0  0  0  0  0  0  0  0
  1  2  1  0  0  0  0
  1 24  1  0  0  0  0
  1 25  1  0  0  0  0
  1 26  1  0  0  0  0
  2  3  1  0  0  0  0
  2 27  1  0  0  0  0
  2 28  1  0  0  0  0
  3  4  1  0  0  0  0
  4 10  1  0  0  0  0
  4  5  2  0  0  0  0
  5  6  1  0  0  0  0
  6  7  2  0  0  0  0
  6 13  1  0  0  0  0
  7  8  1  0  0  0  0
  7 29  1  0  0  0  0
  8  9  1  0  0  0  0
  8 10  2  0  0  0  0
  9 30  1  0  0  0  0
  9 31  1  0  0  0  0
 10 11  1  0  0  0  0
 11 12  3  0  0  0  0
 13 14  1  0  0  0  0
 13 32  1  0  0  0  0
 14 15  2  0  0  0  0
 14 16  1  0  0  0  0
 16 17  1  0  0  0  0
 16 33  1  0  0  0  0
 16 34  1  0  0  0  0
 17 23  1  0  0  0  0
 17 18  2  0  0  0  0
 18 19  1  0  0  0  0
 18 35  1  0  0  0  0
 19 20  2  0  0  0  0
 19 36  1  0  0  0  0
 20 21  1  0  0  0  0
 20 22  1  0  0  0  0
 21 37  1  0  0  0  0
 21 38  1  0  0  0  0
 21 39  1  0  0  0  0
 22 23  2  0  0  0  0
 22 40  1  0  0  0  0
 23 41  1  0  0  0  0
M  END
>  <i_m_stars>
0

>  <r_user_dG.exp>
-9.142359

$$$$
18639-1
  PyMOL2.3          3D                             0

 48 49  0  0  0  0  0  0  0  0999 V2000
   35.9815   25.5844   49.7018 C   0  0  0  0  0  0  0  0  0  0  0  0
   35.3472   26.4478   48.6094 C   0  0  0  0  0  0  0  0  0  0  0  0
   34.0792   26.9277   49.0557 O   0  0  0  0  0  0  0  0  0  0  0  0
   32.9311   26.1895   48.8231 C   0  0  0  0  0  0  0  0  0  0  0  0
   33.0842   24.9078   48.3909 N   0  0  0  0  0  0  0  0  0  0  0  0
   31.9868   24.2090   48.0665 C   0  0  0  0  0  0  0  0  0  0  0  0
   30.7011   24.7183   48.1850 C   0  0  0  0  0  0  0  0  0  0  0  0
   30.5482   26.0211   48.6261 C   0  0  0  0  0  0  0  0  0  0  0  0
   29.2425   26.4939   48.6679 N   0  0  0  0  0  0  0  0  0  0  0  0
   31.6745   26.7869   48.9663 C   0  0  0  0  0  0  0  0  0  0  0  0
   31.5911   28.1718   49.4156 C   0  0  0  0  0  0  0  0  0  0  0  0
   31.5362   29.2715   49.7725 N   0  0  0  0  0  0  0  0  0  0  0  0
   32.3267   22.9563   47.5964 N   0  0  0  0  0  0  0  0  0  0  0  0
   31.6037   22.0664   46.9104 C   0  0  0  0  0  0  0  0  0  0  0  0
   30.4365   22.2334   46.5642 O   0  0  0  0  0  0  0  0  0  0  0  0
   32.3365   20.8030   46.4760 C   0  0  0  0  0  0  0  0  0  0  0  0
   32.8891   19.9907   47.6429 C   0  0  0  0  0  0  0  0  0  0  0  0
   34.1235   20.3168   48.2167 C   0  0  0  0  0  0  0  0  0  0  0  0
   34.7929   21.4167   47.7083 O   0  0  0  0  0  0  0  0  0  0  0  0
   35.9690   21.8934   48.3595 C   0  0  0  0  0  0  0  0  0  0  0  0
   34.6032   19.5254   49.2666 C   0  0  0  0  0  0  0  0  0  0  0  0
   33.8608   18.4514   49.7864 C   0  0  0  0  0  0  0  0  0  0  0  0
   34.4171   17.6776   50.9292 N   0  3  0  0  0  0  0  0  0  0  0  0
   33.6688   17.0020   51.6284 O   0  5  0  0  0  0  0  0  0  0  0  0
   35.6210   17.7642   51.1572 O   0  0  0  0  0  0  0  0  0  0  0  0
   32.6134   18.1397   49.2069 C   0  0  0  0  0  0  0  0  0  0  0  0
   32.1490   18.9155   48.1360 C   0  0  0  0  0  0  0  0  0  0  0  0
   31.8760   17.0910   49.7228 O   0  0  0  0  0  0  0  0  0  0  0  0
   30.9232   16.4213   48.8997 C   0  0  0  0  0  0  0  0  0  0  0  0
   36.9759   25.2494   49.4089 H   0  0  0  0  0  0  0  0  0  0  0  0
   36.0673   26.1561   50.6244 H   0  0  0  0  0  0  0  0  0  0  0  0
   35.3741   24.7030   49.9064 H   0  0  0  0  0  0  0  0  0  0  0  0
   35.9810   27.3169   48.4289 H   0  0  0  0  0  0  0  0  0  0  0  0
   35.2923   25.9237   47.6523 H   0  0  0  0  0  0  0  0  0  0  0  0
   29.8369   24.1323   47.9212 H   0  0  0  0  0  0  0  0  0  0  0  0
   28.4711   25.8789   48.4251 H   0  0  0  0  0  0  0  0  0  0  0  0
   29.0603   27.4765   48.8588 H   0  0  0  0  0  0  0  0  0  0  0  0
   33.2913   22.7329   47.7824 H   0  0  0  0  0  0  0  0  0  0  0  0
   31.6884   20.1819   45.8636 H   0  0  0  0  0  0  0  0  0  0  0  0
   33.1500   21.1280   45.8346 H   0  0  0  0  0  0  0  0  0  0  0  0
   35.7775   22.1595   49.4002 H   0  0  0  0  0  0  0  0  0  0  0  0
   36.7783   21.1628   48.3174 H   0  0  0  0  0  0  0  0  0  0  0  0
   36.3180   22.7944   47.8544 H   0  0  0  0  0  0  0  0  0  0  0  0
   35.5614   19.7536   49.7068 H   0  0  0  0  0  0  0  0  0  0  0  0
   31.2001   18.6882   47.6768 H   0  0  0  0  0  0  0  0  0  0  0  0
   30.5243   15.5665   49.4452 H   0  0  0  0  0  0  0  0  0  0  0  0
   30.0749   17.0498   48.6326 H   0  0  0  0  0  0  0  0  0  0  0  0
   31.3810   16.0360   47.9900 H   0  0  0  0  0  0  0  0  0  0  0  0
  1  2  1  0  0  0  0
  1 30  1  0  0  0  0
  1 31  1  0  0  0  0
  1 32  1  0  0  0  0
  2  3  1  0  0  0  0
  2 33  1  0  0  0  0
  2 34  1  0  0  0  0
  3  4  1  0  0  0  0
  4 10  1  0  0  0  0
  4  5  2  0  0  0  0
  5  6  1  0  0  0  0
  6  7  2  0  0  0  0
  6 13  1  0  0  0  0
  7  8  1  0  0  0  0
  7 35  1  0  0  0  0
  8  9  1  0  0  0  0
  8 10  2  0  0  0  0
  9 36  1  0  0  0  0
  9 37  1  0  0  0  0
 10 11  1  0  0  0  0
 11 12  3  0  0  0  0
 13 14  1  0  0  0  0
 13 38  1  0  0  0  0
 14 15  2  0  0  0  0
 14 16  1  0  0  0  0
 16 17  1  0  0  0  0
 16 39  1  0  0  0  0
 16 40  1  0  0  0  0
 17 27  1  0  0  0  0
 17 18  2  0  0  0  0
 18 19  1  0  0  0  0
 18 21  1  0  0  0  0
 19 20  1  0  0  0  0
 20 41  1  0  0  0  0
 20 42  1  0  0  0  0
 20 43  1  0  0  0  0
 21 22  2  0  0  0  0
 21 44  1  0  0  0  0
 22 23  1  0  0  0  0
 22 26  1  0  0  0  0
 23 24  1  0  0  0  0
 23 25  2  0  0  0  0
 26 27  2  0  0  0  0
 26 28  1  0  0  0  0
 27 45  1  0  0  0  0
 28 29  1  0  0  0  0
 29 46  1  0  0  0  0
 29 47  1  0  0  0  0
 29 48  1  0  0  0  0
M  END
>  <i_m_stars>
0

>  <r_user_dG.exp>
-9.740725

$$$$
18631-1
  PyMOL2.3          3D                             0

 42 43  0  0  0  0  0  0  0  0999 V2000
   36.4634   27.0948   49.7484 C   0  0  0  0  0  0  0  0  0  0  0  0
   35.3955   26.1511   49.1905 C   0  0  0  0  0  0  0  0  0  0  0  0
   34.1380   26.8147   49.2811 O   0  0  0  0  0  0  0  0  0  0  0  0
   32.9827   26.1459   48.9144 C   0  0  0  0  0  0  0  0  0  0  0  0
   33.1158   24.8688   48.4630 N   0  0  0  0  0  0  0  0  0  0  0  0
   32.0115   24.2104   48.0784 C   0  0  0  0  0  0  0  0  0  0  0  0
   30.7378   24.7548   48.1593 C   0  0  0  0  0  0  0  0  0  0  0  0
   30.6052   26.0535   48.6160 C   0  0  0  0  0  0  0  0  0  0  0  0
   29.3075   26.5499   48.6425 N   0  0  0  0  0  0  0  0  0  0  0  0
   31.7408   26.7850   48.9993 C   0  0  0  0  0  0  0  0  0  0  0  0
   31.6774   28.1674   49.4587 C   0  0  0  0  0  0  0  0  0  0  0  0
   31.6370   29.2653   49.8235 N   0  0  0  0  0  0  0  0  0  0  0  0
   32.3273   22.9536   47.6052 N   0  0  0  0  0  0  0  0  0  0  0  0
   31.5927   22.0731   46.9202 C   0  0  0  0  0  0  0  0  0  0  0  0
   30.4309   22.2592   46.5628 O   0  0  0  0  0  0  0  0  0  0  0  0
   32.3100   20.7957   46.4973 C   0  0  0  0  0  0  0  0  0  0  0  0
   32.9387   20.0236   47.6557 C   0  0  0  0  0  0  0  0  0  0  0  0
   34.1861   20.4026   48.1807 C   0  0  0  0  0  0  0  0  0  0  0  0
   34.7909   21.5256   47.6454 O   0  0  0  0  0  0  0  0  0  0  0  0
   35.9038   22.1066   48.3211 C   0  0  0  0  0  0  0  0  0  0  0  0
   34.7502   19.6333   49.2090 C   0  0  0  0  0  0  0  0  0  0  0  0
   34.0703   18.5336   49.7312 C   0  0  0  0  0  0  0  0  0  0  0  0
   32.8223   18.1831   49.2231 C   0  0  0  0  0  0  0  0  0  0  0  0
   32.2604   18.9209   48.1842 C   0  0  0  0  0  0  0  0  0  0  0  0
   37.4517   26.6382   49.7049 H   0  0  0  0  0  0  0  0  0  0  0  0
   36.4978   28.0212   49.1746 H   0  0  0  0  0  0  0  0  0  0  0  0
   36.2540   27.3529   50.7862 H   0  0  0  0  0  0  0  0  0  0  0  0
   35.6175   25.8973   48.1515 H   0  0  0  0  0  0  0  0  0  0  0  0
   35.3859   25.2234   49.7674 H   0  0  0  0  0  0  0  0  0  0  0  0
   29.8670   24.1960   47.8605 H   0  0  0  0  0  0  0  0  0  0  0  0
   28.5298   25.9464   48.3945 H   0  0  0  0  0  0  0  0  0  0  0  0
   29.1349   27.5287   48.8593 H   0  0  0  0  0  0  0  0  0  0  0  0
   33.2856   22.7024   47.7943 H   0  0  0  0  0  0  0  0  0  0  0  0
   31.6338   20.1512   45.9408 H   0  0  0  0  0  0  0  0  0  0  0  0
   33.0868   21.1043   45.8054 H   0  0  0  0  0  0  0  0  0  0  0  0
   35.6625   22.3601   49.3551 H   0  0  0  0  0  0  0  0  0  0  0  0
   36.7735   21.4480   48.3055 H   0  0  0  0  0  0  0  0  0  0  0  0
   36.1859   23.0312   47.8171 H   0  0  0  0  0  0  0  0  0  0  0  0
   35.7169   19.8796   49.6201 H   0  0  0  0  0  0  0  0  0  0  0  0
   34.5111   17.9523   50.5294 H   0  0  0  0  0  0  0  0  0  0  0  0
   32.2963   17.3269   49.6218 H   0  0  0  0  0  0  0  0  0  0  0  0
   31.3026   18.6204   47.7805 H   0  0  0  0  0  0  0  0  0  0  0  0
  1  2  1  0  0  0  0
  1 25  1  0  0  0  0
  1 26  1  0  0  0  0
  1 27  1  0  0  0  0
  2  3  1  0  0  0  0
  2 28  1  0  0  0  0
  2 29  1  0  0  0  0
  3  4  1  0  0  0  0
  4 10  1  0  0  0  0
  4  5  2  0  0  0  0
  5  6  1  0  0  0  0
  6  7  2  0  0  0  0
  6 13  1  0  0  0  0
  7  8  1  0  0  0  0
  7 30  1  0  0  0  0
  8  9  1  0  0  0  0
  8 10  2  0  0  0  0
  9 31  1  0  0  0  0
  9 32  1  0  0  0  0
 10 11  1  0  0  0  0
 11 12  3  0  0  0  0
 13 14  1  0  0  0  0
 13 33  1  0  0  0  0
 14 15  2  0  0  0  0
 14 16  1  0  0  0  0
 16 17  1  0  0  0  0
 16 34  1  0  0  0  0
 16 35  1  0  0  0  0
 17 24  1  0  0  0  0
 17 18  2  0  0  0  0
 18 19  1  0  0  0  0
 18 21  1  0  0  0  0
 19 20  1  0  0  0  0
 20 36  1  0  0  0  0
 20 37  1  0  0  0  0
 20 38  1  0  0  0  0
 21 22  2  0  0  0  0
 21 39  1  0  0  0  0
 22 23  1  0  0  0  0
 22 40  1  0  0  0  0
 23 24  2  0  0  0  0
 23 41  1  0  0  0  0
 24 42  1  0  0  0  0
M  END
>  <i_m_stars>
0

>  <r_user_dG.exp>
-9.413821

$$$$
18632-1
  PyMOL2.3          3D                             0

 42 43  0  0  0  0  0  0  0  0999 V2000
   35.7236   25.9467   47.6820 C   0  0  0  0  0  0  0  0  0  0  0  0
   35.2289   25.9748   49.1346 C   0  0  0  0  0  0  0  0  0  0  0  0
   33.9765   26.6577   49.2359 O   0  0  0  0  0  0  0  0  0  0  0  0
   32.7970   26.0197   48.8885 C   0  0  0  0  0  0  0  0  0  0  0  0
   32.8833   24.7198   48.5020 N   0  0  0  0  0  0  0  0  0  0  0  0
   31.7674   24.0945   48.1107 C   0  0  0  0  0  0  0  0  0  0  0  0
   30.5175   24.6891   48.1193 C   0  0  0  0  0  0  0  0  0  0  0  0
   30.4256   26.0060   48.5307 C   0  0  0  0  0  0  0  0  0  0  0  0
   29.1468   26.5448   48.5040 N   0  0  0  0  0  0  0  0  0  0  0  0
   31.5778   26.7064   48.9276 C   0  0  0  0  0  0  0  0  0  0  0  0
   31.5548   28.0989   49.3606 C   0  0  0  0  0  0  0  0  0  0  0  0
   31.5461   29.2042   49.7064 N   0  0  0  0  0  0  0  0  0  0  0  0
   32.0346   22.7943   47.7528 N   0  0  0  0  0  0  0  0  0  0  0  0
   31.3856   21.9879   46.9091 C   0  0  0  0  0  0  0  0  0  0  0  0
   30.3993   22.3431   46.2676 O   0  0  0  0  0  0  0  0  0  0  0  0
   31.9136   20.5553   46.7293 C   0  0  0  0  0  0  0  0  0  0  0  0
   33.1950   20.2405   47.5010 C   0  0  0  0  0  0  0  0  0  0  0  0
   33.1433   19.5134   48.6956 C   0  0  0  0  0  0  0  0  0  0  0  0
   34.3053   19.1610   49.3763 C   0  0  0  0  0  0  0  0  0  0  0  0
   34.1394   18.4053   50.5160 O   0  0  0  0  0  0  0  0  0  0  0  0
   35.2884   18.0368   51.2706 C   0  0  0  0  0  0  0  0  0  0  0  0
   35.5424   19.5760   48.8610 C   0  0  0  0  0  0  0  0  0  0  0  0
   35.6046   20.3221   47.6833 C   0  0  0  0  0  0  0  0  0  0  0  0
   34.4331   20.6509   47.0034 C   0  0  0  0  0  0  0  0  0  0  0  0
   36.7156   25.5014   47.6129 H   0  0  0  0  0  0  0  0  0  0  0  0
   35.0572   25.3659   47.0446 H   0  0  0  0  0  0  0  0  0  0  0  0
   35.7805   26.9546   47.2716 H   0  0  0  0  0  0  0  0  0  0  0  0
   35.1884   24.9721   49.5665 H   0  0  0  0  0  0  0  0  0  0  0  0
   35.9468   26.5268   49.7419 H   0  0  0  0  0  0  0  0  0  0  0  0
   29.6393   24.1464   47.8126 H   0  0  0  0  0  0  0  0  0  0  0  0
   28.3522   25.9441   48.3046 H   0  0  0  0  0  0  0  0  0  0  0  0
   28.9951   27.5246   48.7335 H   0  0  0  0  0  0  0  0  0  0  0  0
   32.8761   22.4543   48.1841 H   0  0  0  0  0  0  0  0  0  0  0  0
   31.1187   19.8677   47.0154 H   0  0  0  0  0  0  0  0  0  0  0  0
   32.0976   20.3917   45.6708 H   0  0  0  0  0  0  0  0  0  0  0  0
   32.1949   19.1885   49.0982 H   0  0  0  0  0  0  0  0  0  0  0  0
   34.9830   17.4298   52.1222 H   0  0  0  0  0  0  0  0  0  0  0  0
   35.9839   17.4410   50.6811 H   0  0  0  0  0  0  0  0  0  0  0  0
   35.8069   18.9138   51.6608 H   0  0  0  0  0  0  0  0  0  0  0  0
   36.4645   19.3210   49.3599 H   0  0  0  0  0  0  0  0  0  0  0  0
   36.5623   20.6380   47.2927 H   0  0  0  0  0  0  0  0  0  0  0  0
   34.4946   21.2220   46.0872 H   0  0  0  0  0  0  0  0  0  0  0  0
  1  2  1  0  0  0  0
  1 25  1  0  0  0  0
  1 26  1  0  0  0  0
  1 27  1  0  0  0  0
  2  3  1  0  0  0  0
  2 28  1  0  0  0  0
  2 29  1  0  0  0  0
  3  4  1  0  0  0  0
  4 10  1  0  0  0  0
  4  5  2  0  0  0  0
  5  6  1  0  0  0  0
  6  7  2  0  0  0  0
  6 13  1  0  0  0  0
  7  8  1  0  0  0  0
  7 30  1  0  0  0  0
  8  9  1  0  0  0  0
  8 10  2  0  0  0  0
  9 31  1  0  0  0  0
  9 32  1  0  0  0  0
 10 11  1  0  0  0  0
 11 12  3  0  0  0  0
 13 14  1  0  0  0  0
 13 33  1  0  0  0  0
 14 15  2  0  0  0  0
 14 16  1  0  0  0  0
 16 17  1  0  0  0  0
 16 34  1  0  0  0  0
 16 35  1  0  0  0  0
 17 24  1  0  0  0  0
 17 18  2  0  0  0  0
 18 19  1  0  0  0  0
 18 36  1  0  0  0  0
 19 20  1  0  0  0  0
 19 22  2  0  0  0  0
 20 21  1  0  0  0  0
 21 37  1  0  0  0  0
 21 38  1  0  0  0  0
 21 39  1  0  0  0  0
 22 23  1  0  0  0  0
 22 40  1  0  0  0  0
 23 24  2  0  0  0  0
 23 41  1  0  0  0  0
 24 42  1  0  0  0  0
M  END
>  <i_m_stars>
0

>  <r_user_dG.exp>
-9.083236

$$$$
18636-1
  PyMOL2.3          3D                             0

 38 39  0  0  0  0  0  0  0  0999 V2000
   36.3822   27.1802   49.7431 C   0  0  0  0  0  0  0  0  0  0  0  0
   35.3347   26.2105   49.1910 C   0  0  0  0  0  0  0  0  0  0  0  0
   34.0620   26.8462   49.2821 O   0  0  0  0  0  0  0  0  0  0  0  0
   32.9217   26.1539   48.9116 C   0  0  0  0  0  0  0  0  0  0  0  0
   33.0819   24.8766   48.4714 N   0  0  0  0  0  0  0  0  0  0  0  0
   31.9965   24.1969   48.0780 C   0  0  0  0  0  0  0  0  0  0  0  0
   30.7112   24.7172   48.1319 C   0  0  0  0  0  0  0  0  0  0  0  0
   30.5495   26.0182   48.5788 C   0  0  0  0  0  0  0  0  0  0  0  0
   29.2449   26.4987   48.5804 N   0  0  0  0  0  0  0  0  0  0  0  0
   31.6676   26.7707   48.9764 C   0  0  0  0  0  0  0  0  0  0  0  0
   31.5787   28.1537   49.4293 C   0  0  0  0  0  0  0  0  0  0  0  0
   31.5197   29.2522   49.7892 N   0  0  0  0  0  0  0  0  0  0  0  0
   32.3640   22.9486   47.6237 N   0  0  0  0  0  0  0  0  0  0  0  0
   31.6707   22.0292   46.9470 C   0  0  0  0  0  0  0  0  0  0  0  0
   30.4938   22.1481   46.6150 O   0  0  0  0  0  0  0  0  0  0  0  0
   32.4526   20.7959   46.5076 C   0  0  0  0  0  0  0  0  0  0  0  0
   32.9190   19.9258   47.6727 C   0  0  0  0  0  0  0  0  0  0  0  0
   32.0479   19.0399   48.3312 C   0  0  0  0  0  0  0  0  0  0  0  0
   30.2234   18.8481   47.8103 Br  0  0  0  0  0  0  0  0  0  0  0  0
   32.5087   18.2772   49.4042 C   0  0  0  0  0  0  0  0  0  0  0  0
   33.8352   18.3786   49.8224 C   0  0  0  0  0  0  0  0  0  0  0  0
   34.7025   19.2534   49.1734 C   0  0  0  0  0  0  0  0  0  0  0  0
   36.5082   19.4004   49.7518 Br  0  0  0  0  0  0  0  0  0  0  0  0
   34.2462   20.0246   48.1062 C   0  0  0  0  0  0  0  0  0  0  0  0
   37.3806   26.7463   49.6965 H   0  0  0  0  0  0  0  0  0  0  0  0
   36.3930   28.1060   49.1675 H   0  0  0  0  0  0  0  0  0  0  0  0
   36.1716   27.4350   50.7813 H   0  0  0  0  0  0  0  0  0  0  0  0
   35.5606   25.9587   48.1524 H   0  0  0  0  0  0  0  0  0  0  0  0
   35.3478   25.2841   49.7699 H   0  0  0  0  0  0  0  0  0  0  0  0
   29.8565   24.1414   47.8199 H   0  0  0  0  0  0  0  0  0  0  0  0
   28.4717   25.8787   48.3572 H   0  0  0  0  0  0  0  0  0  0  0  0
   29.0586   27.4736   48.8047 H   0  0  0  0  0  0  0  0  0  0  0  0
   33.3353   22.7793   47.8188 H   0  0  0  0  0  0  0  0  0  0  0  0
   31.8449   20.2031   45.8269 H   0  0  0  0  0  0  0  0  0  0  0  0
   33.2990   21.1452   45.9233 H   0  0  0  0  0  0  0  0  0  0  0  0
   31.8304   17.6046   49.9103 H   0  0  0  0  0  0  0  0  0  0  0  0
   34.1944   17.7866   50.6520 H   0  0  0  0  0  0  0  0  0  0  0  0
   34.9318   20.7134   47.6335 H   0  0  0  0  0  0  0  0  0  0  0  0
  1  2  1  0  0  0  0
  1 25  1  0  0  0  0
  1 26  1  0  0  0  0
  1 27  1  0  0  0  0
  2  3  1  0  0  0  0
  2 28  1  0  0  0  0
  2 29  1  0  0  0  0
  3  4  1  0  0  0  0
  4 10  1  0  0  0  0
  4  5  2  0  0  0  0
  5  6  1  0  0  0  0
  6  7  2  0  0  0  0
  6 13  1  0  0  0  0
  7  8  1  0  0  0  0
  7 30  1  0  0  0  0
  8  9  1  0  0  0  0
  8 10  2  0  0  0  0
  9 31  1  0  0  0  0
  9 32  1  0  0  0  0
 10 11  1  0  0  0  0
 11 12  3  0  0  0  0
 13 14  1  0  0  0  0
 13 33  1  0  0  0  0
 14 15  2  0  0  0  0
 14 16  1  0  0  0  0
 16 17  1  0  0  0  0
 16 34  1  0  0  0  0
 16 35  1  0  0  0  0
 17 24  1  0  0  0  0
 17 18  2  0  0  0  0
 18 19  1  0  0  0  0
 18 20  1  0  0  0  0
 20 21  2  0  0  0  0
 20 36  1  0  0  0  0
 21 22  1  0  0  0  0
 21 37  1  0  0  0  0
 22 23  1  0  0  0  0
 22 24  2  0  0  0  0
 24 38  1  0  0  0  0
M  END
>  <i_m_stars>
0

>  <r_user_dG.exp>
-7.512318

$$$$
18626-1
  PyMOL2.3          3D                             0

 38 39  0  0  0  0  0  0  0  0999 V2000
   36.3663   27.1779   49.7339 C   0  0  0  0  0  0  0  0  0  0  0  0
   35.3090   26.2112   49.1946 C   0  0  0  0  0  0  0  0  0  0  0  0
   34.0426   26.8590   49.2811 O   0  0  0  0  0  0  0  0  0  0  0  0
   32.8953   26.1733   48.9203 C   0  0  0  0  0  0  0  0  0  0  0  0
   33.0419   24.8894   48.4927 N   0  0  0  0  0  0  0  0  0  0  0  0
   31.9464   24.2189   48.1089 C   0  0  0  0  0  0  0  0  0  0  0  0
   30.6680   24.7520   48.1628 C   0  0  0  0  0  0  0  0  0  0  0  0
   30.5220   26.0575   48.5948 C   0  0  0  0  0  0  0  0  0  0  0  0
   29.2216   26.5445   48.5897 N   0  0  0  0  0  0  0  0  0  0  0  0
   31.6476   26.8037   48.9816 C   0  0  0  0  0  0  0  0  0  0  0  0
   31.5728   28.1930   49.4175 C   0  0  0  0  0  0  0  0  0  0  0  0
   31.5251   29.2964   49.7635 N   0  0  0  0  0  0  0  0  0  0  0  0
   32.2873   22.9630   47.6591 N   0  0  0  0  0  0  0  0  0  0  0  0
   31.5951   22.0918   46.9192 C   0  0  0  0  0  0  0  0  0  0  0  0
   30.4428   22.2678   46.5293 O   0  0  0  0  0  0  0  0  0  0  0  0
   32.3517   20.8467   46.4690 C   0  0  0  0  0  0  0  0  0  0  0  0
   33.1131   20.1479   47.5868 C   0  0  0  0  0  0  0  0  0  0  0  0
   32.4579   19.2275   48.4091 C   0  0  0  0  0  0  0  0  0  0  0  0
   33.1412   18.6090   49.4536 C   0  0  0  0  0  0  0  0  0  0  0  0
   32.3133   17.5070   50.4897 Cl  0  0  0  0  0  0  0  0  0  0  0  0
   34.4888   18.8940   49.6700 C   0  0  0  0  0  0  0  0  0  0  0  0
   35.1533   19.8052   48.8468 C   0  0  0  0  0  0  0  0  0  0  0  0
   34.4655   20.4333   47.8080 C   0  0  0  0  0  0  0  0  0  0  0  0
   37.3607   26.7344   49.6908 H   0  0  0  0  0  0  0  0  0  0  0  0
   36.3845   28.0967   49.1476 H   0  0  0  0  0  0  0  0  0  0  0  0
   36.1597   27.4463   50.7694 H   0  0  0  0  0  0  0  0  0  0  0  0
   35.5306   25.9462   48.1584 H   0  0  0  0  0  0  0  0  0  0  0  0
   35.3150   25.2916   49.7842 H   0  0  0  0  0  0  0  0  0  0  0  0
   29.8067   24.1808   47.8594 H   0  0  0  0  0  0  0  0  0  0  0  0
   28.4483   25.9262   48.3628 H   0  0  0  0  0  0  0  0  0  0  0  0
   29.0381   27.5224   48.8040 H   0  0  0  0  0  0  0  0  0  0  0  0
   33.2322   22.7398   47.9105 H   0  0  0  0  0  0  0  0  0  0  0  0
   31.6703   20.1441   45.9922 H   0  0  0  0  0  0  0  0  0  0  0  0
   33.0405   21.1926   45.7077 H   0  0  0  0  0  0  0  0  0  0  0  0
   31.4202   18.9836   48.2400 H   0  0  0  0  0  0  0  0  0  0  0  0
   35.0120   18.4113   50.4825 H   0  0  0  0  0  0  0  0  0  0  0  0
   36.1979   20.0285   49.0189 H   0  0  0  0  0  0  0  0  0  0  0  0
   34.9902   21.1381   47.1769 H   0  0  0  0  0  0  0  0  0  0  0  0
  1  2  1  0  0  0  0
  1 24  1  0  0  0  0
  1 25  1  0  0  0  0
  1 26  1  0  0  0  0
  2  3  1  0  0  0  0
  2 27  1  0  0  0  0
  2 28  1  0  0  0  0
  3  4  1  0  0  0  0
  4 10  1  0  0  0  0
  4  5  2  0  0  0  0
  5  6  1  0  0  0  0
  6  7  2  0  0  0  0
  6 13  1  0  0  0  0
  7  8  1  0  0  0  0
  7 29  1  0  0  0  0
  8  9  1  0  0  0  0
  8 10  2  0  0  0  0
  9 30  1  0  0  0  0
  9 31  1  0  0  0  0
 10 11  1  0  0  0  0
 11 12  3  0  0  0  0
 13 14  1  0  0  0  0
 13 32  1  0  0  0  0
 14 15  2  0  0  0  0
 14 16  1  0  0  0  0
 16 17  1  0  0  0  0
 16 33  1  0  0  0  0
 16 34  1  0  0  0  0
 17 23  1  0  0  0  0
 17 18  2  0  0  0  0
 18 19  1  0  0  0  0
 18 35  1  0  0  0  0
 19 20  1  0  0  0  0
 19 21  2  0  0  0  0
 21 22  1  0  0  0  0
 21 36  1  0  0  0  0
 22 23  2  0  0  0  0
 22 37  1  0  0  0  0
 23 38  1  0  0  0  0
M  END
>  <i_m_stars>
0

>  <r_user_dG.exp>
-8.872536

$$$$
